<?xml version="1.0" encoding="UTF-8"?>

<!-- generated on 2023-04-26 16:56:59.432972 by randomTrips.py UNKNOWN
<configuration>
    <begin value="0"/>
    <end value="900"/>
    <insertion-rate value="8000.0"/>
    <net-file value="/home/franky3er/Documents/code/HieraGLight/scenarios/grid/1x1-500m/train/62-scenario/network.net.xml"/>
    <random value="True"/>
    <random-depart value="True"/>
    <route-file value="/home/franky3er/Documents/code/HieraGLight/scenarios/grid/1x1-500m/train/62-scenario/routes.rou.xml"/>
    <seed value="62"/>
    <output-trip-file value="/home/franky3er/Documents/code/HieraGLight/scenarios/grid/1x1-500m/train/62-scenario/trips.trips.xml"/>
    <vehicle-class value="passenger"/>
</configuration>
-->

<routes xmlns:xsi="http://www.w3.org/2001/XMLSchema-instance" xsi:noNamespaceSchemaLocation="http://sumo.dlr.de/xsd/routes_file.xsd">
    <vType id="passenger" vClass="passenger"/>
    <trip id="0" depart="0.90" from="left0A0" to="top0A0.250.00" type="passenger"/>
    <trip id="1" depart="1.20" from="right0A0.250.00" to="A0right0" type="passenger"/>
    <trip id="2" depart="1.65" from="bottom0A0.250.00" to="A0top0" type="passenger"/>
    <trip id="3" depart="2.20" from="right0A0" to="right0A0.250.00" type="passenger"/>
    <trip id="4" depart="2.55" from="right0A0.250.00" to="right0A0.250.00" type="passenger"/>
    <trip id="5" depart="3.00" from="right0A0" to="bottom0A0.250.00" type="passenger"/>
    <trip id="6" depart="3.40" from="right0A0.250.00" to="A0bottom0" type="passenger"/>
    <trip id="7" depart="3.65" from="bottom0A0.250.00" to="A0top0" type="passenger"/>
    <trip id="8" depart="4.30" from="top0A0" to="left0A0.250.00" type="passenger"/>
    <trip id="9" depart="5.20" from="bottom0A0" to="right0A0.250.00" type="passenger"/>
    <trip id="10" depart="5.90" from="bottom0A0" to="left0A0.250.00" type="passenger"/>
    <trip id="11" depart="5.95" from="left0A0" to="A0left0" type="passenger"/>
    <trip id="12" depart="6.05" from="top0A0.250.00" to="bottom0A0.250.00" type="passenger"/>
    <trip id="13" depart="7.05" from="right0A0.250.00" to="bottom0A0.250.00" type="passenger"/>
    <trip id="14" depart="7.10" from="right0A0" to="right0A0.250.00" type="passenger"/>
    <trip id="15" depart="7.25" from="top0A0" to="right0A0.250.00" type="passenger"/>
    <trip id="16" depart="7.25" from="left0A0.250.00" to="A0top0" type="passenger"/>
    <trip id="17" depart="7.45" from="bottom0A0" to="bottom0A0.250.00" type="passenger"/>
    <trip id="18" depart="7.70" from="top0A0" to="A0bottom0" type="passenger"/>
    <trip id="19" depart="9.45" from="top0A0" to="top0A0.250.00" type="passenger"/>
    <trip id="20" depart="10.15" from="right0A0" to="left0A0.250.00" type="passenger"/>
    <trip id="21" depart="10.60" from="left0A0" to="right0A0.250.00" type="passenger"/>
    <trip id="22" depart="10.75" from="left0A0.250.00" to="A0left0" type="passenger"/>
    <trip id="23" depart="11.20" from="left0A0" to="right0A0.250.00" type="passenger"/>
    <trip id="24" depart="11.30" from="right0A0" to="bottom0A0.250.00" type="passenger"/>
    <trip id="25" depart="11.60" from="top0A0" to="left0A0.250.00" type="passenger"/>
    <trip id="26" depart="11.80" from="left0A0.250.00" to="A0right0" type="passenger"/>
    <trip id="27" depart="11.85" from="left0A0.250.00" to="top0A0.250.00" type="passenger"/>
    <trip id="28" depart="11.85" from="bottom0A0" to="A0right0" type="passenger"/>
    <trip id="29" depart="13.00" from="bottom0A0.250.00" to="left0A0.250.00" type="passenger"/>
    <trip id="30" depart="13.20" from="left0A0" to="A0left0" type="passenger"/>
    <trip id="31" depart="13.25" from="bottom0A0.250.00" to="A0left0" type="passenger"/>
    <trip id="32" depart="13.40" from="top0A0.250.00" to="A0top0" type="passenger"/>
    <trip id="33" depart="14.00" from="top0A0" to="right0A0.250.00" type="passenger"/>
    <trip id="34" depart="15.05" from="right0A0" to="A0right0" type="passenger"/>
    <trip id="35" depart="16.35" from="left0A0.250.00" to="A0bottom0" type="passenger"/>
    <trip id="36" depart="17.35" from="right0A0" to="A0top0" type="passenger"/>
    <trip id="37" depart="17.60" from="top0A0.250.00" to="A0right0" type="passenger"/>
    <trip id="38" depart="17.95" from="left0A0.250.00" to="A0right0" type="passenger"/>
    <trip id="39" depart="19.50" from="bottom0A0" to="right0A0.250.00" type="passenger"/>
    <trip id="40" depart="19.65" from="top0A0.250.00" to="left0A0.250.00" type="passenger"/>
    <trip id="41" depart="19.85" from="top0A0" to="bottom0A0.250.00" type="passenger"/>
    <trip id="42" depart="20.00" from="top0A0" to="A0right0" type="passenger"/>
    <trip id="43" depart="20.75" from="left0A0" to="top0A0.250.00" type="passenger"/>
    <trip id="44" depart="21.00" from="right0A0.250.00" to="A0left0" type="passenger"/>
    <trip id="45" depart="21.35" from="left0A0.250.00" to="A0top0" type="passenger"/>
    <trip id="46" depart="21.50" from="top0A0.250.00" to="A0bottom0" type="passenger"/>
    <trip id="47" depart="21.75" from="left0A0.250.00" to="A0left0" type="passenger"/>
    <trip id="48" depart="22.15" from="right0A0.250.00" to="bottom0A0.250.00" type="passenger"/>
    <trip id="49" depart="22.35" from="right0A0.250.00" to="A0bottom0" type="passenger"/>
    <trip id="50" depart="22.95" from="bottom0A0" to="bottom0A0.250.00" type="passenger"/>
    <trip id="51" depart="23.25" from="left0A0" to="A0left0" type="passenger"/>
    <trip id="52" depart="24.25" from="bottom0A0" to="A0right0" type="passenger"/>
    <trip id="53" depart="24.30" from="right0A0" to="right0A0.250.00" type="passenger"/>
    <trip id="54" depart="24.75" from="bottom0A0.250.00" to="A0top0" type="passenger"/>
    <trip id="55" depart="24.80" from="left0A0" to="left0A0.250.00" type="passenger"/>
    <trip id="56" depart="26.90" from="top0A0" to="A0top0" type="passenger"/>
    <trip id="57" depart="27.30" from="top0A0" to="A0right0" type="passenger"/>
    <trip id="58" depart="27.35" from="left0A0" to="left0A0.250.00" type="passenger"/>
    <trip id="59" depart="28.15" from="top0A0.250.00" to="top0A0.250.00" type="passenger"/>
    <trip id="60" depart="28.90" from="left0A0.250.00" to="A0top0" type="passenger"/>
    <trip id="61" depart="29.70" from="left0A0.250.00" to="A0right0" type="passenger"/>
    <trip id="62" depart="29.75" from="bottom0A0" to="A0top0" type="passenger"/>
    <trip id="63" depart="30.05" from="bottom0A0" to="A0top0" type="passenger"/>
    <trip id="64" depart="30.10" from="bottom0A0" to="A0right0" type="passenger"/>
    <trip id="65" depart="30.15" from="right0A0.250.00" to="top0A0.250.00" type="passenger"/>
    <trip id="66" depart="30.60" from="bottom0A0.250.00" to="A0top0" type="passenger"/>
    <trip id="67" depart="30.65" from="left0A0.250.00" to="right0A0.250.00" type="passenger"/>
    <trip id="68" depart="31.25" from="bottom0A0.250.00" to="A0right0" type="passenger"/>
    <trip id="69" depart="31.65" from="left0A0" to="right0A0.250.00" type="passenger"/>
    <trip id="70" depart="31.85" from="bottom0A0.250.00" to="top0A0.250.00" type="passenger"/>
    <trip id="71" depart="32.20" from="bottom0A0.250.00" to="A0left0" type="passenger"/>
    <trip id="72" depart="32.60" from="bottom0A0.250.00" to="left0A0.250.00" type="passenger"/>
    <trip id="73" depart="34.05" from="left0A0" to="right0A0.250.00" type="passenger"/>
    <trip id="74" depart="35.55" from="left0A0.250.00" to="A0right0" type="passenger"/>
    <trip id="75" depart="35.60" from="left0A0.250.00" to="A0top0" type="passenger"/>
    <trip id="76" depart="35.65" from="left0A0" to="A0left0" type="passenger"/>
    <trip id="77" depart="35.75" from="top0A0" to="left0A0.250.00" type="passenger"/>
    <trip id="78" depart="36.25" from="top0A0.250.00" to="right0A0.250.00" type="passenger"/>
    <trip id="79" depart="36.35" from="top0A0.250.00" to="right0A0.250.00" type="passenger"/>
    <trip id="80" depart="36.45" from="bottom0A0" to="top0A0.250.00" type="passenger"/>
    <trip id="81" depart="37.15" from="top0A0.250.00" to="top0A0.250.00" type="passenger"/>
    <trip id="82" depart="37.55" from="top0A0" to="A0bottom0" type="passenger"/>
    <trip id="83" depart="37.80" from="right0A0" to="A0bottom0" type="passenger"/>
    <trip id="84" depart="38.80" from="left0A0" to="A0top0" type="passenger"/>
    <trip id="85" depart="39.05" from="left0A0" to="left0A0.250.00" type="passenger"/>
    <trip id="86" depart="39.55" from="top0A0" to="A0top0" type="passenger"/>
    <trip id="87" depart="39.75" from="bottom0A0" to="A0right0" type="passenger"/>
    <trip id="88" depart="40.25" from="top0A0.250.00" to="A0top0" type="passenger"/>
    <trip id="89" depart="40.30" from="bottom0A0" to="right0A0.250.00" type="passenger"/>
    <trip id="90" depart="41.05" from="top0A0" to="left0A0.250.00" type="passenger"/>
    <trip id="91" depart="41.35" from="left0A0" to="A0right0" type="passenger"/>
    <trip id="92" depart="42.05" from="left0A0.250.00" to="A0bottom0" type="passenger"/>
    <trip id="93" depart="42.05" from="right0A0.250.00" to="A0left0" type="passenger"/>
    <trip id="94" depart="42.15" from="right0A0" to="A0top0" type="passenger"/>
    <trip id="95" depart="42.75" from="left0A0" to="top0A0.250.00" type="passenger"/>
    <trip id="96" depart="43.20" from="bottom0A0.250.00" to="right0A0.250.00" type="passenger"/>
    <trip id="97" depart="43.30" from="bottom0A0" to="right0A0.250.00" type="passenger"/>
    <trip id="98" depart="43.75" from="left0A0" to="A0top0" type="passenger"/>
    <trip id="99" depart="44.15" from="left0A0" to="A0left0" type="passenger"/>
    <trip id="100" depart="44.20" from="right0A0" to="top0A0.250.00" type="passenger"/>
    <trip id="101" depart="44.20" from="right0A0" to="A0left0" type="passenger"/>
    <trip id="102" depart="44.20" from="right0A0.250.00" to="A0right0" type="passenger"/>
    <trip id="103" depart="44.30" from="left0A0" to="top0A0.250.00" type="passenger"/>
    <trip id="104" depart="45.30" from="left0A0.250.00" to="A0right0" type="passenger"/>
    <trip id="105" depart="45.50" from="left0A0" to="A0bottom0" type="passenger"/>
    <trip id="106" depart="45.60" from="left0A0" to="bottom0A0.250.00" type="passenger"/>
    <trip id="107" depart="46.25" from="right0A0.250.00" to="A0bottom0" type="passenger"/>
    <trip id="108" depart="46.40" from="top0A0.250.00" to="top0A0.250.00" type="passenger"/>
    <trip id="109" depart="47.30" from="right0A0" to="top0A0.250.00" type="passenger"/>
    <trip id="110" depart="47.40" from="top0A0.250.00" to="bottom0A0.250.00" type="passenger"/>
    <trip id="111" depart="47.60" from="bottom0A0.250.00" to="left0A0.250.00" type="passenger"/>
    <trip id="112" depart="47.70" from="bottom0A0" to="A0right0" type="passenger"/>
    <trip id="113" depart="48.15" from="top0A0.250.00" to="left0A0.250.00" type="passenger"/>
    <trip id="114" depart="48.40" from="top0A0.250.00" to="A0bottom0" type="passenger"/>
    <trip id="115" depart="48.50" from="bottom0A0" to="right0A0.250.00" type="passenger"/>
    <trip id="116" depart="48.50" from="bottom0A0" to="left0A0.250.00" type="passenger"/>
    <trip id="117" depart="50.05" from="right0A0" to="A0bottom0" type="passenger"/>
    <trip id="118" depart="50.10" from="top0A0.250.00" to="A0right0" type="passenger"/>
    <trip id="119" depart="50.20" from="bottom0A0" to="A0top0" type="passenger"/>
    <trip id="120" depart="50.75" from="top0A0.250.00" to="A0left0" type="passenger"/>
    <trip id="121" depart="51.60" from="left0A0.250.00" to="A0left0" type="passenger"/>
    <trip id="122" depart="51.80" from="right0A0.250.00" to="left0A0.250.00" type="passenger"/>
    <trip id="123" depart="52.10" from="bottom0A0.250.00" to="A0bottom0" type="passenger"/>
    <trip id="124" depart="52.40" from="top0A0.250.00" to="top0A0.250.00" type="passenger"/>
    <trip id="125" depart="52.55" from="top0A0.250.00" to="A0top0" type="passenger"/>
    <trip id="126" depart="52.85" from="right0A0.250.00" to="right0A0.250.00" type="passenger"/>
    <trip id="127" depart="52.90" from="left0A0" to="right0A0.250.00" type="passenger"/>
    <trip id="128" depart="54.25" from="bottom0A0.250.00" to="A0bottom0" type="passenger"/>
    <trip id="129" depart="54.70" from="right0A0.250.00" to="bottom0A0.250.00" type="passenger"/>
    <trip id="130" depart="54.90" from="right0A0" to="left0A0.250.00" type="passenger"/>
    <trip id="131" depart="56.80" from="right0A0" to="right0A0.250.00" type="passenger"/>
    <trip id="132" depart="57.15" from="left0A0" to="bottom0A0.250.00" type="passenger"/>
    <trip id="133" depart="57.40" from="left0A0.250.00" to="A0left0" type="passenger"/>
    <trip id="134" depart="57.55" from="top0A0" to="A0top0" type="passenger"/>
    <trip id="135" depart="58.50" from="right0A0.250.00" to="A0right0" type="passenger"/>
    <trip id="136" depart="58.90" from="top0A0" to="right0A0.250.00" type="passenger"/>
    <trip id="137" depart="59.30" from="top0A0.250.00" to="A0bottom0" type="passenger"/>
    <trip id="138" depart="59.30" from="top0A0.250.00" to="A0right0" type="passenger"/>
    <trip id="139" depart="59.45" from="left0A0.250.00" to="A0bottom0" type="passenger"/>
    <trip id="140" depart="60.65" from="left0A0" to="A0right0" type="passenger"/>
    <trip id="141" depart="60.80" from="bottom0A0.250.00" to="right0A0.250.00" type="passenger"/>
    <trip id="142" depart="60.90" from="left0A0" to="A0right0" type="passenger"/>
    <trip id="143" depart="61.80" from="left0A0.250.00" to="right0A0.250.00" type="passenger"/>
    <trip id="144" depart="62.70" from="top0A0" to="left0A0.250.00" type="passenger"/>
    <trip id="145" depart="62.70" from="bottom0A0.250.00" to="A0right0" type="passenger"/>
    <trip id="146" depart="63.30" from="left0A0.250.00" to="top0A0.250.00" type="passenger"/>
    <trip id="147" depart="63.40" from="bottom0A0" to="A0left0" type="passenger"/>
    <trip id="148" depart="63.60" from="top0A0.250.00" to="A0left0" type="passenger"/>
    <trip id="149" depart="63.65" from="left0A0" to="top0A0.250.00" type="passenger"/>
    <trip id="150" depart="63.80" from="bottom0A0.250.00" to="right0A0.250.00" type="passenger"/>
    <trip id="151" depart="63.85" from="top0A0.250.00" to="left0A0.250.00" type="passenger"/>
    <trip id="152" depart="63.95" from="bottom0A0.250.00" to="top0A0.250.00" type="passenger"/>
    <trip id="153" depart="64.05" from="top0A0.250.00" to="bottom0A0.250.00" type="passenger"/>
    <trip id="154" depart="64.15" from="right0A0" to="top0A0.250.00" type="passenger"/>
    <trip id="155" depart="64.85" from="right0A0.250.00" to="A0top0" type="passenger"/>
    <trip id="156" depart="66.75" from="bottom0A0" to="left0A0.250.00" type="passenger"/>
    <trip id="157" depart="66.85" from="right0A0.250.00" to="left0A0.250.00" type="passenger"/>
    <trip id="158" depart="67.05" from="left0A0.250.00" to="right0A0.250.00" type="passenger"/>
    <trip id="159" depart="68.05" from="top0A0.250.00" to="left0A0.250.00" type="passenger"/>
    <trip id="160" depart="68.75" from="left0A0" to="top0A0.250.00" type="passenger"/>
    <trip id="161" depart="68.75" from="left0A0" to="A0top0" type="passenger"/>
    <trip id="162" depart="68.75" from="top0A0.250.00" to="A0right0" type="passenger"/>
    <trip id="163" depart="69.05" from="left0A0" to="bottom0A0.250.00" type="passenger"/>
    <trip id="164" depart="69.25" from="top0A0" to="left0A0.250.00" type="passenger"/>
    <trip id="165" depart="69.30" from="left0A0.250.00" to="right0A0.250.00" type="passenger"/>
    <trip id="166" depart="69.55" from="top0A0" to="right0A0.250.00" type="passenger"/>
    <trip id="167" depart="69.80" from="top0A0.250.00" to="left0A0.250.00" type="passenger"/>
    <trip id="168" depart="70.10" from="bottom0A0.250.00" to="A0top0" type="passenger"/>
    <trip id="169" depart="70.35" from="top0A0.250.00" to="bottom0A0.250.00" type="passenger"/>
    <trip id="170" depart="70.70" from="right0A0" to="A0top0" type="passenger"/>
    <trip id="171" depart="71.00" from="bottom0A0.250.00" to="left0A0.250.00" type="passenger"/>
    <trip id="172" depart="71.05" from="bottom0A0" to="A0bottom0" type="passenger"/>
    <trip id="173" depart="71.45" from="bottom0A0.250.00" to="left0A0.250.00" type="passenger"/>
    <trip id="174" depart="71.75" from="bottom0A0.250.00" to="right0A0.250.00" type="passenger"/>
    <trip id="175" depart="72.00" from="right0A0" to="A0left0" type="passenger"/>
    <trip id="176" depart="72.00" from="bottom0A0" to="top0A0.250.00" type="passenger"/>
    <trip id="177" depart="73.40" from="top0A0" to="top0A0.250.00" type="passenger"/>
    <trip id="178" depart="73.45" from="top0A0" to="A0bottom0" type="passenger"/>
    <trip id="179" depart="73.50" from="bottom0A0" to="A0left0" type="passenger"/>
    <trip id="180" depart="74.50" from="bottom0A0.250.00" to="A0right0" type="passenger"/>
    <trip id="181" depart="75.90" from="top0A0" to="A0bottom0" type="passenger"/>
    <trip id="182" depart="75.95" from="right0A0.250.00" to="top0A0.250.00" type="passenger"/>
    <trip id="183" depart="76.75" from="left0A0.250.00" to="left0A0.250.00" type="passenger"/>
    <trip id="184" depart="76.90" from="right0A0.250.00" to="right0A0.250.00" type="passenger"/>
    <trip id="185" depart="77.20" from="right0A0.250.00" to="left0A0.250.00" type="passenger"/>
    <trip id="186" depart="77.25" from="left0A0" to="right0A0.250.00" type="passenger"/>
    <trip id="187" depart="77.65" from="bottom0A0" to="A0top0" type="passenger"/>
    <trip id="188" depart="79.20" from="top0A0" to="A0bottom0" type="passenger"/>
    <trip id="189" depart="79.45" from="right0A0.250.00" to="left0A0.250.00" type="passenger"/>
    <trip id="190" depart="80.30" from="left0A0" to="A0left0" type="passenger"/>
    <trip id="191" depart="80.60" from="top0A0" to="right0A0.250.00" type="passenger"/>
    <trip id="192" depart="80.70" from="right0A0" to="A0top0" type="passenger"/>
    <trip id="193" depart="82.45" from="bottom0A0.250.00" to="right0A0.250.00" type="passenger"/>
    <trip id="194" depart="83.30" from="bottom0A0.250.00" to="A0top0" type="passenger"/>
    <trip id="195" depart="83.35" from="top0A0.250.00" to="A0left0" type="passenger"/>
    <trip id="196" depart="83.70" from="top0A0.250.00" to="left0A0.250.00" type="passenger"/>
    <trip id="197" depart="84.15" from="bottom0A0.250.00" to="A0top0" type="passenger"/>
    <trip id="198" depart="84.45" from="top0A0" to="A0top0" type="passenger"/>
    <trip id="199" depart="85.00" from="top0A0.250.00" to="bottom0A0.250.00" type="passenger"/>
    <trip id="200" depart="85.65" from="bottom0A0.250.00" to="A0bottom0" type="passenger"/>
    <trip id="201" depart="85.85" from="left0A0" to="top0A0.250.00" type="passenger"/>
    <trip id="202" depart="86.35" from="top0A0.250.00" to="right0A0.250.00" type="passenger"/>
    <trip id="203" depart="87.45" from="bottom0A0" to="A0right0" type="passenger"/>
    <trip id="204" depart="87.50" from="bottom0A0" to="right0A0.250.00" type="passenger"/>
    <trip id="205" depart="87.60" from="bottom0A0.250.00" to="right0A0.250.00" type="passenger"/>
    <trip id="206" depart="89.05" from="top0A0.250.00" to="left0A0.250.00" type="passenger"/>
    <trip id="207" depart="89.60" from="top0A0" to="A0bottom0" type="passenger"/>
    <trip id="208" depart="89.80" from="right0A0" to="A0right0" type="passenger"/>
    <trip id="209" depart="90.50" from="left0A0.250.00" to="right0A0.250.00" type="passenger"/>
    <trip id="210" depart="90.55" from="bottom0A0.250.00" to="bottom0A0.250.00" type="passenger"/>
    <trip id="211" depart="90.90" from="top0A0.250.00" to="A0right0" type="passenger"/>
    <trip id="212" depart="91.35" from="right0A0.250.00" to="A0right0" type="passenger"/>
    <trip id="213" depart="91.40" from="bottom0A0" to="top0A0.250.00" type="passenger"/>
    <trip id="214" depart="91.40" from="left0A0" to="left0A0.250.00" type="passenger"/>
    <trip id="215" depart="92.30" from="bottom0A0" to="A0bottom0" type="passenger"/>
    <trip id="216" depart="92.90" from="right0A0" to="top0A0.250.00" type="passenger"/>
    <trip id="217" depart="93.75" from="left0A0" to="A0left0" type="passenger"/>
    <trip id="218" depart="94.80" from="bottom0A0.250.00" to="top0A0.250.00" type="passenger"/>
    <trip id="219" depart="95.05" from="left0A0" to="A0right0" type="passenger"/>
    <trip id="220" depart="95.50" from="top0A0.250.00" to="right0A0.250.00" type="passenger"/>
    <trip id="221" depart="95.50" from="bottom0A0" to="top0A0.250.00" type="passenger"/>
    <trip id="222" depart="95.50" from="left0A0" to="A0left0" type="passenger"/>
    <trip id="223" depart="96.85" from="right0A0" to="top0A0.250.00" type="passenger"/>
    <trip id="224" depart="97.00" from="right0A0" to="bottom0A0.250.00" type="passenger"/>
    <trip id="225" depart="97.20" from="right0A0" to="A0right0" type="passenger"/>
    <trip id="226" depart="97.30" from="top0A0" to="right0A0.250.00" type="passenger"/>
    <trip id="227" depart="98.25" from="bottom0A0" to="A0top0" type="passenger"/>
    <trip id="228" depart="98.35" from="right0A0.250.00" to="A0right0" type="passenger"/>
    <trip id="229" depart="98.45" from="bottom0A0.250.00" to="A0bottom0" type="passenger"/>
    <trip id="230" depart="98.60" from="top0A0" to="right0A0.250.00" type="passenger"/>
    <trip id="231" depart="98.85" from="left0A0.250.00" to="A0bottom0" type="passenger"/>
    <trip id="232" depart="99.05" from="right0A0" to="left0A0.250.00" type="passenger"/>
    <trip id="233" depart="99.30" from="left0A0.250.00" to="A0top0" type="passenger"/>
    <trip id="234" depart="99.55" from="left0A0" to="left0A0.250.00" type="passenger"/>
    <trip id="235" depart="100.05" from="top0A0.250.00" to="bottom0A0.250.00" type="passenger"/>
    <trip id="236" depart="100.85" from="top0A0" to="A0top0" type="passenger"/>
    <trip id="237" depart="100.90" from="top0A0.250.00" to="A0top0" type="passenger"/>
    <trip id="238" depart="101.25" from="left0A0" to="top0A0.250.00" type="passenger"/>
    <trip id="239" depart="102.40" from="right0A0.250.00" to="A0top0" type="passenger"/>
    <trip id="240" depart="102.45" from="top0A0.250.00" to="A0top0" type="passenger"/>
    <trip id="241" depart="102.65" from="left0A0" to="A0top0" type="passenger"/>
    <trip id="242" depart="102.80" from="right0A0" to="A0bottom0" type="passenger"/>
    <trip id="243" depart="103.45" from="top0A0.250.00" to="right0A0.250.00" type="passenger"/>
    <trip id="244" depart="104.60" from="bottom0A0" to="bottom0A0.250.00" type="passenger"/>
    <trip id="245" depart="104.65" from="right0A0.250.00" to="left0A0.250.00" type="passenger"/>
    <trip id="246" depart="104.75" from="right0A0.250.00" to="bottom0A0.250.00" type="passenger"/>
    <trip id="247" depart="104.85" from="bottom0A0" to="A0bottom0" type="passenger"/>
    <trip id="248" depart="104.95" from="top0A0" to="A0bottom0" type="passenger"/>
    <trip id="249" depart="105.00" from="top0A0.250.00" to="A0left0" type="passenger"/>
    <trip id="250" depart="105.10" from="left0A0.250.00" to="top0A0.250.00" type="passenger"/>
    <trip id="251" depart="105.55" from="left0A0" to="bottom0A0.250.00" type="passenger"/>
    <trip id="252" depart="105.90" from="left0A0" to="A0right0" type="passenger"/>
    <trip id="253" depart="105.95" from="left0A0" to="A0bottom0" type="passenger"/>
    <trip id="254" depart="106.80" from="bottom0A0" to="left0A0.250.00" type="passenger"/>
    <trip id="255" depart="107.20" from="right0A0" to="right0A0.250.00" type="passenger"/>
    <trip id="256" depart="107.30" from="right0A0.250.00" to="top0A0.250.00" type="passenger"/>
    <trip id="257" depart="107.70" from="left0A0" to="left0A0.250.00" type="passenger"/>
    <trip id="258" depart="107.85" from="right0A0.250.00" to="A0right0" type="passenger"/>
    <trip id="259" depart="109.45" from="right0A0" to="A0right0" type="passenger"/>
    <trip id="260" depart="110.50" from="top0A0.250.00" to="right0A0.250.00" type="passenger"/>
    <trip id="261" depart="110.75" from="bottom0A0" to="A0top0" type="passenger"/>
    <trip id="262" depart="110.75" from="top0A0.250.00" to="right0A0.250.00" type="passenger"/>
    <trip id="263" depart="110.95" from="top0A0.250.00" to="top0A0.250.00" type="passenger"/>
    <trip id="264" depart="112.40" from="right0A0" to="top0A0.250.00" type="passenger"/>
    <trip id="265" depart="113.85" from="bottom0A0.250.00" to="bottom0A0.250.00" type="passenger"/>
    <trip id="266" depart="114.05" from="top0A0.250.00" to="A0left0" type="passenger"/>
    <trip id="267" depart="114.20" from="right0A0" to="A0bottom0" type="passenger"/>
    <trip id="268" depart="114.70" from="right0A0.250.00" to="top0A0.250.00" type="passenger"/>
    <trip id="269" depart="114.85" from="top0A0" to="A0left0" type="passenger"/>
    <trip id="270" depart="115.10" from="right0A0" to="left0A0.250.00" type="passenger"/>
    <trip id="271" depart="116.15" from="bottom0A0" to="A0right0" type="passenger"/>
    <trip id="272" depart="117.10" from="bottom0A0.250.00" to="left0A0.250.00" type="passenger"/>
    <trip id="273" depart="118.45" from="top0A0" to="A0bottom0" type="passenger"/>
    <trip id="274" depart="119.40" from="left0A0" to="A0bottom0" type="passenger"/>
    <trip id="275" depart="119.40" from="top0A0" to="top0A0.250.00" type="passenger"/>
    <trip id="276" depart="120.15" from="bottom0A0" to="top0A0.250.00" type="passenger"/>
    <trip id="277" depart="120.45" from="left0A0" to="bottom0A0.250.00" type="passenger"/>
    <trip id="278" depart="121.35" from="right0A0.250.00" to="A0bottom0" type="passenger"/>
    <trip id="279" depart="121.45" from="bottom0A0.250.00" to="top0A0.250.00" type="passenger"/>
    <trip id="280" depart="121.70" from="bottom0A0.250.00" to="A0bottom0" type="passenger"/>
    <trip id="281" depart="121.90" from="left0A0" to="left0A0.250.00" type="passenger"/>
    <trip id="282" depart="122.75" from="bottom0A0" to="A0top0" type="passenger"/>
    <trip id="283" depart="122.75" from="left0A0" to="top0A0.250.00" type="passenger"/>
    <trip id="284" depart="123.40" from="bottom0A0.250.00" to="A0right0" type="passenger"/>
    <trip id="285" depart="127.05" from="left0A0.250.00" to="top0A0.250.00" type="passenger"/>
    <trip id="286" depart="127.20" from="right0A0" to="A0left0" type="passenger"/>
    <trip id="287" depart="127.50" from="right0A0" to="A0bottom0" type="passenger"/>
    <trip id="288" depart="129.40" from="left0A0" to="A0right0" type="passenger"/>
    <trip id="289" depart="129.65" from="right0A0" to="bottom0A0.250.00" type="passenger"/>
    <trip id="290" depart="129.75" from="bottom0A0" to="A0right0" type="passenger"/>
    <trip id="291" depart="130.05" from="left0A0.250.00" to="bottom0A0.250.00" type="passenger"/>
    <trip id="292" depart="130.05" from="left0A0" to="top0A0.250.00" type="passenger"/>
    <trip id="293" depart="131.60" from="right0A0" to="A0left0" type="passenger"/>
    <trip id="294" depart="132.60" from="right0A0" to="A0top0" type="passenger"/>
    <trip id="295" depart="132.90" from="right0A0.250.00" to="left0A0.250.00" type="passenger"/>
    <trip id="296" depart="133.05" from="left0A0.250.00" to="left0A0.250.00" type="passenger"/>
    <trip id="297" depart="133.10" from="bottom0A0" to="left0A0.250.00" type="passenger"/>
    <trip id="298" depart="133.40" from="top0A0" to="A0right0" type="passenger"/>
    <trip id="299" depart="133.80" from="top0A0" to="top0A0.250.00" type="passenger"/>
    <trip id="300" depart="134.30" from="right0A0.250.00" to="top0A0.250.00" type="passenger"/>
    <trip id="301" depart="135.15" from="top0A0.250.00" to="A0bottom0" type="passenger"/>
    <trip id="302" depart="135.50" from="right0A0.250.00" to="left0A0.250.00" type="passenger"/>
    <trip id="303" depart="135.90" from="right0A0.250.00" to="top0A0.250.00" type="passenger"/>
    <trip id="304" depart="136.05" from="right0A0" to="right0A0.250.00" type="passenger"/>
    <trip id="305" depart="136.15" from="left0A0" to="bottom0A0.250.00" type="passenger"/>
    <trip id="306" depart="136.45" from="right0A0.250.00" to="A0bottom0" type="passenger"/>
    <trip id="307" depart="136.55" from="right0A0.250.00" to="A0bottom0" type="passenger"/>
    <trip id="308" depart="136.65" from="top0A0" to="A0left0" type="passenger"/>
    <trip id="309" depart="137.10" from="right0A0.250.00" to="A0right0" type="passenger"/>
    <trip id="310" depart="137.35" from="bottom0A0.250.00" to="A0bottom0" type="passenger"/>
    <trip id="311" depart="138.10" from="left0A0" to="A0top0" type="passenger"/>
    <trip id="312" depart="138.45" from="top0A0" to="bottom0A0.250.00" type="passenger"/>
    <trip id="313" depart="138.45" from="left0A0.250.00" to="A0bottom0" type="passenger"/>
    <trip id="314" depart="139.05" from="left0A0" to="bottom0A0.250.00" type="passenger"/>
    <trip id="315" depart="139.40" from="right0A0.250.00" to="right0A0.250.00" type="passenger"/>
    <trip id="316" depart="139.65" from="left0A0.250.00" to="A0top0" type="passenger"/>
    <trip id="317" depart="140.20" from="left0A0.250.00" to="bottom0A0.250.00" type="passenger"/>
    <trip id="318" depart="140.25" from="top0A0" to="A0right0" type="passenger"/>
    <trip id="319" depart="140.60" from="top0A0" to="A0bottom0" type="passenger"/>
    <trip id="320" depart="142.10" from="left0A0" to="A0bottom0" type="passenger"/>
    <trip id="321" depart="142.10" from="right0A0.250.00" to="A0bottom0" type="passenger"/>
    <trip id="322" depart="144.65" from="right0A0.250.00" to="right0A0.250.00" type="passenger"/>
    <trip id="323" depart="144.75" from="right0A0" to="A0bottom0" type="passenger"/>
    <trip id="324" depart="145.35" from="bottom0A0" to="bottom0A0.250.00" type="passenger"/>
    <trip id="325" depart="146.15" from="right0A0.250.00" to="top0A0.250.00" type="passenger"/>
    <trip id="326" depart="146.30" from="right0A0.250.00" to="A0left0" type="passenger"/>