<?xml version="1.0" encoding="UTF-8"?>

<!-- generated on 2023-02-12 18:46:22.444703 by randomTrips.py UNKNOWN
<configuration>
    <begin value="0"/>
    <end value="900"/>
    <insertion-rate value="12500.0"/>
    <net-file value="/home/franky3er/Documents/code/HieraGLight/scenarios/grid/5x5-150m/train/5-scenario/network.net.xml"/>
    <random value="True"/>
    <random-depart value="True"/>
    <route-file value="/home/franky3er/Documents/code/HieraGLight/scenarios/grid/5x5-150m/train/5-scenario/routes.rou.xml"/>
    <seed value="5"/>
    <output-trip-file value="/home/franky3er/Documents/code/HieraGLight/scenarios/grid/5x5-150m/train/5-scenario/trips.trips.xml"/>
    <vehicle-class value="passenger"/>
</configuration>
-->

<routes xmlns:xsi="http://www.w3.org/2001/XMLSchema-instance" xsi:noNamespaceSchemaLocation="http://sumo.dlr.de/xsd/routes_file.xsd">
    <vType id="passenger" vClass="passenger"/>
    <trip id="0" depart="0.08" from="B3B2.80.00" to="B3B2" type="passenger"/>
    <trip id="1" depart="0.09" from="E0E1" to="B4C4" type="passenger"/>
    <trip id="2" depart="0.22" from="B1B2" to="C2B2" type="passenger"/>
    <trip id="3" depart="0.25" from="B0C0" to="E1E2" type="passenger"/>
    <trip id="4" depart="0.46" from="D1E1" to="D1D0" type="passenger"/>
    <trip id="5" depart="0.49" from="B2B3" to="C3C2" type="passenger"/>
    <trip id="6" depart="0.69" from="B2B1.80.00" to="bottom1B0.80.00" type="passenger"/>
    <trip id="7" depart="0.70" from="C2C3" to="B0C0" type="passenger"/>
    <trip id="8" depart="0.81" from="D0D1" to="C3B3" type="passenger"/>
    <trip id="9" depart="1.30" from="C3B3.80.00" to="B1B0.80.00" type="passenger"/>
    <trip id="10" depart="1.80" from="B2A2" to="C2C1.80.00" type="passenger"/>
    <trip id="11" depart="1.84" from="D0E0.80.00" to="E4top4" type="passenger"/>
    <trip id="12" depart="2.55" from="E2E1" to="B0bottom1" type="passenger"/>
    <trip id="13" depart="2.69" from="A3B3" to="D2C2" type="passenger"/>
    <trip id="14" depart="2.78" from="left3A3.80.00" to="A3B3.80.00" type="passenger"/>
    <trip id="15" depart="3.03" from="B1B0.80.00" to="C4B4" type="passenger"/>
    <trip id="16" depart="3.34" from="D3E3.80.00" to="left1A1.80.00" type="passenger"/>
    <trip id="17" depart="5.39" from="E0D0" to="C3B3.80.00" type="passenger"/>
    <trip id="18" depart="5.74" from="C1D1.80.00" to="A4top0" type="passenger"/>
    <trip id="19" depart="5.75" from="right2E2" to="B3B4" type="passenger"/>
    <trip id="20" depart="6.54" from="B2B3" to="C0D0.80.00" type="passenger"/>
    <trip id="21" depart="6.94" from="D4C4" to="E2right2" type="passenger"/>
    <trip id="22" depart="7.64" from="C3D3.80.00" to="D4C4.80.00" type="passenger"/>
    <trip id="23" depart="8.03" from="C0B0" to="A0A1.80.00" type="passenger"/>
    <trip id="24" depart="8.70" from="C4C3.80.00" to="E1E2" type="passenger"/>
    <trip id="25" depart="8.70" from="B4B3.80.00" to="A4B4.80.00" type="passenger"/>
    <trip id="26" depart="9.15" from="D2D3.80.00" to="B3B4.80.00" type="passenger"/>
    <trip id="27" depart="9.34" from="E0D0.80.00" to="E0D0" type="passenger"/>
    <trip id="28" depart="9.37" from="A1A0" to="bottom2C0.80.00" type="passenger"/>
    <trip id="29" depart="9.82" from="C3D3.80.00" to="A0bottom0" type="passenger"/>
    <trip id="30" depart="10.07" from="A2A3" to="left1A1.80.00" type="passenger"/>
    <trip id="31" depart="10.62" from="A1B1.80.00" to="B4top1" type="passenger"/>
    <trip id="32" depart="10.95" from="B2C2.80.00" to="D2E2" type="passenger"/>
    <trip id="33" depart="11.19" from="E2D2" to="A1B1.80.00" type="passenger"/>
    <trip id="34" depart="11.21" from="B3B2.80.00" to="left2A2.80.00" type="passenger"/>
    <trip id="35" depart="11.24" from="left4A4" to="B2B1" type="passenger"/>
    <trip id="36" depart="11.35" from="C0D0.80.00" to="A4left4" type="passenger"/>
    <trip id="37" depart="11.39" from="left4A4" to="bottom4E0.80.00" type="passenger"/>
    <trip id="38" depart="11.85" from="right2E2.80.00" to="E2D2" type="passenger"/>
    <trip id="39" depart="11.97" from="E3E2.80.00" to="A3A4" type="passenger"/>
    <trip id="40" depart="12.33" from="E4D4.80.00" to="D2D1.80.00" type="passenger"/>
    <trip id="41" depart="12.39" from="A0A1" to="C0C1" type="passenger"/>
    <trip id="42" depart="12.63" from="top1B4" to="A2A1.80.00" type="passenger"/>
    <trip id="43" depart="12.65" from="right3E3.80.00" to="D4E4.80.00" type="passenger"/>
    <trip id="44" depart="12.93" from="B2A2.80.00" to="B0A0" type="passenger"/>
    <trip id="45" depart="13.44" from="D2C2.80.00" to="E1D1" type="passenger"/>
    <trip id="46" depart="13.79" from="top1B4" to="E0E1.80.00" type="passenger"/>
    <trip id="47" depart="13.80" from="B0B1" to="C0C1.80.00" type="passenger"/>
    <trip id="48" depart="14.15" from="D4C4" to="D3C3.80.00" type="passenger"/>
    <trip id="49" depart="14.99" from="bottom3D0.80.00" to="bottom4E0.80.00" type="passenger"/>
    <trip id="50" depart="15.08" from="A3A4" to="B3C3.80.00" type="passenger"/>
    <trip id="51" depart="15.16" from="C4C3" to="C4B4.80.00" type="passenger"/>
    <trip id="52" depart="15.23" from="C4C3" to="C4B4" type="passenger"/>
    <trip id="53" depart="15.24" from="B1B0" to="D0C0.80.00" type="passenger"/>
    <trip id="54" depart="17.87" from="left2A2" to="C3D3" type="passenger"/>
    <trip id="55" depart="18.00" from="C2B2" to="D3E3" type="passenger"/>
    <trip id="56" depart="18.10" from="D1D2" to="A4left4" type="passenger"/>
    <trip id="57" depart="18.34" from="E1E0.80.00" to="C1C2" type="passenger"/>
    <trip id="58" depart="18.41" from="E2D2.80.00" to="A2A3.80.00" type="passenger"/>
    <trip id="59" depart="18.64" from="C2B2" to="E3D3" type="passenger"/>
    <trip id="60" depart="18.68" from="C4D4.80.00" to="B1C1.80.00" type="passenger"/>
    <trip id="61" depart="18.70" from="A2B2.80.00" to="D1C1" type="passenger"/>
    <trip id="62" depart="19.52" from="E0D0" to="A3A4" type="passenger"/>
    <trip id="63" depart="19.69" from="D1D2.80.00" to="E3E2.80.00" type="passenger"/>
    <trip id="64" depart="19.74" from="E1E2" to="left3A3.80.00" type="passenger"/>
    <trip id="65" depart="19.98" from="B3C3.80.00" to="D0D1" type="passenger"/>
    <trip id="66" depart="20.04" from="right3E3.80.00" to="A1A0.80.00" type="passenger"/>
    <trip id="67" depart="21.05" from="D2D1" to="D2D1.80.00" type="passenger"/>
    <trip id="68" depart="21.20" from="B1A1.80.00" to="B1B0" type="passenger"/>
    <trip id="69" depart="22.57" from="right3E3.80.00" to="D2C2.80.00" type="passenger"/>
    <trip id="70" depart="22.88" from="D3C3" to="A3left3" type="passenger"/>
    <trip id="71" depart="23.02" from="D3D4.80.00" to="A0B0.80.00" type="passenger"/>
    <trip id="72" depart="23.04" from="A4B4" to="E0D0" type="passenger"/>
    <trip id="73" depart="23.21" from="C2D2.80.00" to="C1C2.80.00" type="passenger"/>
    <trip id="74" depart="23.60" from="E1E2.80.00" to="B1A1" type="passenger"/>
    <trip id="75" depart="23.70" from="C1B1" to="D3D4.80.00" type="passenger"/>
    <trip id="76" depart="23.79" from="C0D0" to="E0E1.80.00" type="passenger"/>
    <trip id="77" depart="23.90" from="bottom3D0.80.00" to="right2E2.80.00" type="passenger"/>
    <trip id="78" depart="23.94" from="E3E2.80.00" to="B0B1.80.00" type="passenger"/>
    <trip id="79" depart="24.24" from="A4A3.80.00" to="B4A4.80.00" type="passenger"/>
    <trip id="80" depart="24.33" from="E0D0.80.00" to="D3C3" type="passenger"/>
    <trip id="81" depart="24.50" from="B1C1" to="B1B0" type="passenger"/>
    <trip id="82" depart="24.55" from="right3E3.80.00" to="E0right0" type="passenger"/>
    <trip id="83" depart="24.66" from="A3A4" to="A2B2.80.00" type="passenger"/>
    <trip id="84" depart="25.34" from="C2C1" to="B2B1.80.00" type="passenger"/>
    <trip id="85" depart="25.38" from="D0C0.80.00" to="D4C4" type="passenger"/>
    <trip id="86" depart="25.71" from="B2C2" to="E1E0.80.00" type="passenger"/>
    <trip id="87" depart="26.04" from="E3E2.80.00" to="C3D3" type="passenger"/>
    <trip id="88" depart="26.60" from="A3A2.80.00" to="A1A2.80.00" type="passenger"/>
    <trip id="89" depart="26.89" from="C3D3.80.00" to="E4E3.80.00" type="passenger"/>
    <trip id="90" depart="27.62" from="bottom1B0" to="C3D3.80.00" type="passenger"/>
    <trip id="91" depart="28.37" from="A2A1" to="D2E2.80.00" type="passenger"/>
    <trip id="92" depart="28.99" from="E4D4.80.00" to="A1B1.80.00" type="passenger"/>
    <trip id="93" depart="29.15" from="E2D2" to="C0D0" type="passenger"/>
    <trip id="94" depart="29.18" from="right2E2" to="A1B1" type="passenger"/>
    <trip id="95" depart="29.19" from="bottom4E0.80.00" to="D3C3.80.00" type="passenger"/>
    <trip id="96" depart="29.32" from="C3D3.80.00" to="A0A1.80.00" type="passenger"/>
    <trip id="97" depart="30.21" from="C0B0" to="left4A4.80.00" type="passenger"/>
    <trip id="98" depart="30.42" from="left4A4" to="C1D1" type="passenger"/>
    <trip id="99" depart="30.65" from="E0E1.80.00" to="D2D1" type="passenger"/>
    <trip id="100" depart="30.70" from="B3B2.80.00" to="D4E4" type="passenger"/>
    <trip id="101" depart="30.81" from="A3A2" to="E3D3" type="passenger"/>
    <trip id="102" depart="31.39" from="bottom4E0" to="E2E3" type="passenger"/>
    <trip id="103" depart="31.62" from="A2B2.80.00" to="D4D3" type="passenger"/>
    <trip id="104" depart="32.26" from="B2A2.80.00" to="B2B1" type="passenger"/>
    <trip id="105" depart="32.95" from="E3E4" to="D2E2" type="passenger"/>
    <trip id="106" depart="33.27" from="D1D2" to="A3A2.80.00" type="passenger"/>
    <trip id="107" depart="33.46" from="D1D0" to="A3left3" type="passenger"/>
    <trip id="108" depart="33.47" from="top3D4.80.00" to="A3A2.80.00" type="passenger"/>
    <trip id="109" depart="33.65" from="A4B4" to="E1E0.80.00" type="passenger"/>
    <trip id="110" depart="33.96" from="E3E2" to="C2C1" type="passenger"/>
    <trip id="111" depart="34.05" from="left2A2" to="B0A0.80.00" type="passenger"/>
    <trip id="112" depart="34.49" from="A3A4.80.00" to="D1D2" type="passenger"/>
    <trip id="113" depart="34.52" from="B1C1.80.00" to="B3B2" type="passenger"/>
    <trip id="114" depart="34.58" from="left3A3.80.00" to="E1E0.80.00" type="passenger"/>
    <trip id="115" depart="35.52" from="D3D4" to="B2C2" type="passenger"/>
    <trip id="116" depart="36.22" from="E3E2" to="B0B1.80.00" type="passenger"/>
    <trip id="117" depart="36.42" from="left3A3.80.00" to="bottom1B0.80.00" type="passenger"/>
    <trip id="118" depart="36.46" from="A0B0.80.00" to="C4C3.80.00" type="passenger"/>
    <trip id="119" depart="36.50" from="E3E2" to="E3E2.80.00" type="passenger"/>
    <trip id="120" depart="36.63" from="A1B1" to="C4D4" type="passenger"/>
    <trip id="121" depart="36.79" from="left3A3.80.00" to="E3E2.80.00" type="passenger"/>
    <trip id="122" depart="37.42" from="E0D0.80.00" to="C3C4.80.00" type="passenger"/>
    <trip id="123" depart="37.47" from="C3C2.80.00" to="top2C4.80.00" type="passenger"/>
    <trip id="124" depart="37.77" from="left2A2.80.00" to="bottom1B0.80.00" type="passenger"/>
    <trip id="125" depart="37.98" from="B4C4" to="C3D3.80.00" type="passenger"/>
    <trip id="126" depart="38.35" from="C2D2.80.00" to="B3C3" type="passenger"/>
    <trip id="127" depart="38.38" from="bottom2C0.80.00" to="D2C2.80.00" type="passenger"/>
    <trip id="128" depart="38.78" from="right1E1.80.00" to="C0bottom2" type="passenger"/>
    <trip id="129" depart="38.86" from="B1A1" to="D2D1.80.00" type="passenger"/>
    <trip id="130" depart="38.90" from="A0A1.80.00" to="C3B3" type="passenger"/>
    <trip id="131" depart="39.17" from="C0C1.80.00" to="A4top0" type="passenger"/>
    <trip id="132" depart="39.34" from="C1C0" to="E0right0" type="passenger"/>
    <trip id="133" depart="39.70" from="E0D0" to="E3E4" type="passenger"/>
    <trip id="134" depart="39.88" from="D4E4" to="C4C3.80.00" type="passenger"/>
    <trip id="135" depart="40.07" from="B0B1.80.00" to="C4top2" type="passenger"/>
    <trip id="136" depart="40.18" from="right1E1" to="A0B0" type="passenger"/>
    <trip id="137" depart="40.51" from="C3C4.80.00" to="A3B3.80.00" type="passenger"/>
    <trip id="138" depart="40.53" from="A3A2.80.00" to="D0C0.80.00" type="passenger"/>
    <trip id="139" depart="40.65" from="D1E1.80.00" to="B2B1" type="passenger"/>
    <trip id="140" depart="40.66" from="D3E3.80.00" to="B2B3.80.00" type="passenger"/>
    <trip id="141" depart="40.94" from="E1E2" to="C0C1.80.00" type="passenger"/>
    <trip id="142" depart="41.07" from="E2E3.80.00" to="top2C4.80.00" type="passenger"/>
    <trip id="143" depart="41.18" from="C1C0" to="C1B1.80.00" type="passenger"/>
    <trip id="144" depart="42.00" from="C4B4.80.00" to="D2D1" type="passenger"/>
    <trip id="145" depart="42.38" from="A1A2.80.00" to="C3D3" type="passenger"/>
    <trip id="146" depart="42.54" from="C0C1.80.00" to="E3D3" type="passenger"/>
    <trip id="147" depart="43.13" from="C1D1.80.00" to="C0B0" type="passenger"/>
    <trip id="148" depart="43.80" from="D3E3" to="E2D2.80.00" type="passenger"/>
    <trip id="149" depart="43.99" from="C4D4.80.00" to="D1D2.80.00" type="passenger"/>
    <trip id="150" depart="44.04" from="D2D3" to="D2D1.80.00" type="passenger"/>
    <trip id="151" depart="44.31" from="C0B0.80.00" to="E0E1.80.00" type="passenger"/>
    <trip id="152" depart="44.66" from="C3B3.80.00" to="A3A4.80.00" type="passenger"/>
    <trip id="153" depart="44.75" from="E1D1" to="C2B2" type="passenger"/>
    <trip id="154" depart="45.42" from="E1E2.80.00" to="C4D4.80.00" type="passenger"/>
    <trip id="155" depart="45.83" from="B1B0.80.00" to="bottom4E0.80.00" type="passenger"/>
    <trip id="156" depart="46.10" from="C1B1.80.00" to="A1A2" type="passenger"/>
    <trip id="157" depart="46.25" from="top2C4" to="C4top2" type="passenger"/>
    <trip id="158" depart="46.30" from="C2B2" to="B2B1.80.00" type="passenger"/>
    <trip id="159" depart="47.10" from="C2C3.80.00" to="C1D1" type="passenger"/>
    <trip id="160" depart="47.35" from="E1E0" to="C0C1.80.00" type="passenger"/>
    <trip id="161" depart="47.42" from="E1E2" to="C2C1.80.00" type="passenger"/>
    <trip id="162" depart="47.59" from="B4B3.80.00" to="B3B2" type="passenger"/>
    <trip id="163" depart="47.94" from="B4C4" to="A4A3" type="passenger"/>
    <trip id="164" depart="47.98" from="bottom1B0.80.00" to="D1C1.80.00" type="passenger"/>
    <trip id="165" depart="48.25" from="E3E2" to="A0B0.80.00" type="passenger"/>
    <trip id="166" depart="48.41" from="right0E0.80.00" to="A2left2" type="passenger"/>
    <trip id="167" depart="48.66" from="D1D2" to="right3E3.80.00" type="passenger"/>
    <trip id="168" depart="48.90" from="E2D2" to="B1A1" type="passenger"/>
    <trip id="169" depart="49.11" from="D3D4.80.00" to="C3D3.80.00" type="passenger"/>
    <trip id="170" depart="49.23" from="B3A3" to="C3B3.80.00" type="passenger"/>
    <trip id="171" depart="49.39" from="B4A4.80.00" to="A0B0.80.00" type="passenger"/>
    <trip id="172" depart="49.55" from="left1A1" to="D3D4" type="passenger"/>
    <trip id="173" depart="49.56" from="B2B1.80.00" to="C0C1" type="passenger"/>
    <trip id="174" depart="50.06" from="A0B0.80.00" to="C3B3.80.00" type="passenger"/>
    <trip id="175" depart="50.08" from="D1D0.80.00" to="D2E2.80.00" type="passenger"/>
    <trip id="176" depart="50.38" from="B3B2.80.00" to="left0A0.80.00" type="passenger"/>
    <trip id="177" depart="50.66" from="right4E4" to="C2B2.80.00" type="passenger"/>
    <trip id="178" depart="51.05" from="C0D0.80.00" to="E4D4.80.00" type="passenger"/>
    <trip id="179" depart="51.16" from="A2A1.80.00" to="B0C0.80.00" type="passenger"/>
    <trip id="180" depart="51.59" from="C2B2.80.00" to="D2C2.80.00" type="passenger"/>
    <trip id="181" depart="52.06" from="E0D0" to="E2E3" type="passenger"/>
    <trip id="182" depart="53.04" from="D0D1" to="D1E1.80.00" type="passenger"/>
    <trip id="183" depart="54.56" from="D1D0.80.00" to="D1D2.80.00" type="passenger"/>
    <trip id="184" depart="54.70" from="top3D4" to="D3E3.80.00" type="passenger"/>
    <trip id="185" depart="54.71" from="bottom1B0" to="C1B1.80.00" type="passenger"/>
    <trip id="186" depart="54.90" from="left2A2" to="A4A3" type="passenger"/>
    <trip id="187" depart="54.95" from="C1C0" to="D1D2.80.00" type="passenger"/>
    <trip id="188" depart="54.96" from="D4D3" to="B0B1.80.00" type="passenger"/>
    <trip id="189" depart="55.24" from="C2D2.80.00" to="E2right2" type="passenger"/>
    <trip id="190" depart="55.26" from="B1C1" to="D1E1" type="passenger"/>
    <trip id="191" depart="55.46" from="B3A3" to="bottom1B0.80.00" type="passenger"/>
    <trip id="192" depart="56.11" from="bottom0A0.80.00" to="E3D3.80.00" type="passenger"/>
    <trip id="193" depart="56.24" from="C2C1.80.00" to="A2A3" type="passenger"/>
    <trip id="194" depart="56.25" from="C4C3.80.00" to="B4A4.80.00" type="passenger"/>
    <trip id="195" depart="56.34" from="A2A3.80.00" to="E2E3.80.00" type="passenger"/>
    <trip id="196" depart="56.35" from="left1A1.80.00" to="D0D1.80.00" type="passenger"/>
    <trip id="197" depart="56.43" from="A2A3" to="B0A0.80.00" type="passenger"/>
    <trip id="198" depart="56.74" from="C2B2.80.00" to="D3E3.80.00" type="passenger"/>
    <trip id="199" depart="57.21" from="B2B3" to="D2C2" type="passenger"/>
    <trip id="200" depart="57.43" from="D1C1" to="E3E4" type="passenger"/>
    <trip id="201" depart="57.86" from="right4E4" to="E3E2.80.00" type="passenger"/>
    <trip id="202" depart="58.07" from="D1C1.80.00" to="D2D3.80.00" type="passenger"/>
    <trip id="203" depart="58.33" from="B0A0.80.00" to="C2C1" type="passenger"/>
    <trip id="204" depart="58.34" from="D0C0.80.00" to="E1E0.80.00" type="passenger"/>
    <trip id="205" depart="58.93" from="C1C2" to="B4C4.80.00" type="passenger"/>
    <trip id="206" depart="58.98" from="C0D0" to="B2A2.80.00" type="passenger"/>
    <trip id="207" depart="59.25" from="top3D4.80.00" to="B4B3" type="passenger"/>
    <trip id="208" depart="59.71" from="C4B4" to="left1A1.80.00" type="passenger"/>
    <trip id="209" depart="59.78" from="top0A4" to="A2A1" type="passenger"/>
    <trip id="210" depart="60.22" from="B2C2.80.00" to="A0A1.80.00" type="passenger"/>
    <trip id="211" depart="60.50" from="B0C0" to="A2A1.80.00" type="passenger"/>
    <trip id="212" depart="61.33" from="E2E3" to="D0C0.80.00" type="passenger"/>
    <trip id="213" depart="61.41" from="D2D1.80.00" to="D1E1" type="passenger"/>
    <trip id="214" depart="61.86" from="bottom0A0.80.00" to="C1C2.80.00" type="passenger"/>
    <trip id="215" depart="62.06" from="E3D3.80.00" to="A1A0" type="passenger"/>
    <trip id="216" depart="62.34" from="D2D3.80.00" to="D0bottom3" type="passenger"/>
    <trip id="217" depart="62.43" from="D1C1.80.00" to="D4D3.80.00" type="passenger"/>
    <trip id="218" depart="62.47" from="B4C4" to="A3A2.80.00" type="passenger"/>
    <trip id="219" depart="63.02" from="D1E1" to="E0bottom4" type="passenger"/>
    <trip id="220" depart="63.06" from="A4A3" to="D0D1" type="passenger"/>
    <trip id="221" depart="63.68" from="A0B0.80.00" to="A3A4.80.00" type="passenger"/>
    <trip id="222" depart="64.09" from="A1A2" to="A0A1.80.00" type="passenger"/>
    <trip id="223" depart="64.70" from="C0C1" to="A3left3" type="passenger"/>
    <trip id="224" depart="64.72" from="bottom1B0" to="A4left4" type="passenger"/>
    <trip id="225" depart="64.91" from="E3D3" to="E4top4" type="passenger"/>
    <trip id="226" depart="65.39" from="E4D4" to="B3C3" type="passenger"/>
    <trip id="227" depart="66.66" from="top0A4" to="E0right0" type="passenger"/>
    <trip id="228" depart="66.70" from="C2D2.80.00" to="right0E0.80.00" type="passenger"/>
    <trip id="229" depart="66.92" from="E3E4.80.00" to="B4C4.80.00" type="passenger"/>
    <trip id="230" depart="68.25" from="B4C4" to="E0right0" type="passenger"/>
    <trip id="231" depart="68.93" from="B3C3.80.00" to="top2C4.80.00" type="passenger"/>
    <trip id="232" depart="69.05" from="E3E4" to="B4B3" type="passenger"/>
    <trip id="233" depart="69.18" from="C1B1.80.00" to="B2C2.80.00" type="passenger"/>
    <trip id="234" depart="70.79" from="D4C4.80.00" to="B2A2.80.00" type="passenger"/>
    <trip id="235" depart="71.06" from="D1E1.80.00" to="A2A3" type="passenger"/>
    <trip id="236" depart="72.27" from="E3E4" to="E3E4.80.00" type="passenger"/>
    <trip id="237" depart="72.46" from="B3C3.80.00" to="D2D3.80.00" type="passenger"/>
    <trip id="238" depart="72.60" from="A3A2.80.00" to="C2C1" type="passenger"/>
    <trip id="239" depart="72.65" from="bottom2C0.80.00" to="B4B3.80.00" type="passenger"/>
    <trip id="240" depart="72.72" from="B0A0.80.00" to="D1D0.80.00" type="passenger"/>
    <trip id="241" depart="72.93" from="D3C3.80.00" to="C2C3.80.00" type="passenger"/>
    <trip id="242" depart="73.34" from="B1B2.80.00" to="bottom0A0.80.00" type="passenger"/>
    <trip id="243" depart="73.62" from="B2C2" to="E0D0" type="passenger"/>
    <trip id="244" depart="73.96" from="B1B0" to="C1C0.80.00" type="passenger"/>
    <trip id="245" depart="74.31" from="B1A1.80.00" to="E3E2" type="passenger"/>
    <trip id="246" depart="74.32" from="A3A2" to="C1C2" type="passenger"/>
    <trip id="247" depart="74.52" from="A4B4.80.00" to="B2B1.80.00" type="passenger"/>
    <trip id="248" depart="74.91" from="B2C2.80.00" to="D1D2" type="passenger"/>
    <trip id="249" depart="74.91" from="E2E3.80.00" to="E1E2" type="passenger"/>
    <trip id="250" depart="75.03" from="B2B1" to="C1B1" type="passenger"/>
    <trip id="251" depart="75.14" from="top3D4.80.00" to="C1B1.80.00" type="passenger"/>
    <trip id="252" depart="75.33" from="D3E3.80.00" to="E0D0" type="passenger"/>
    <trip id="253" depart="75.78" from="E3E4.80.00" to="D2C2.80.00" type="passenger"/>
    <trip id="254" depart="75.81" from="B3A3.80.00" to="A4A3.80.00" type="passenger"/>
    <trip id="255" depart="75.88" from="A1A0.80.00" to="top4E4.80.00" type="passenger"/>
    <trip id="256" depart="76.44" from="B0A0.80.00" to="E1D1" type="passenger"/>
    <trip id="257" depart="76.45" from="B3A3" to="D0C0" type="passenger"/>
    <trip id="258" depart="77.05" from="E2E3" to="A0B0.80.00" type="passenger"/>
    <trip id="259" depart="78.16" from="D1D2" to="B1B0" type="passenger"/>
    <trip id="260" depart="78.30" from="B2C2.80.00" to="B3B4.80.00" type="passenger"/>
    <trip id="261" depart="78.86" from="D3D4" to="top4E4.80.00" type="passenger"/>
    <trip id="262" depart="78.94" from="D3C3.80.00" to="E1E0.80.00" type="passenger"/>
    <trip id="263" depart="79.05" from="E4D4.80.00" to="left3A3.80.00" type="passenger"/>
    <trip id="264" depart="79.25" from="bottom1B0" to="B3B2" type="passenger"/>
    <trip id="265" depart="79.31" from="left1A1.80.00" to="E1right1" type="passenger"/>
    <trip id="266" depart="79.65" from="top1B4" to="D3E3" type="passenger"/>
    <trip id="267" depart="79.87" from="left3A3" to="D4C4.80.00" type="passenger"/>
    <trip id="268" depart="80.53" from="E3E4" to="E0right0" type="passenger"/>
    <trip id="269" depart="80.54" from="left4A4.80.00" to="C3C2.80.00" type="passenger"/>
    <trip id="270" depart="80.71" from="B4B3" to="A4top0" type="passenger"/>
    <trip id="271" depart="80.90" from="B0C0" to="A3A4" type="passenger"/>
    <trip id="272" depart="81.12" from="B0A0" to="D1C1" type="passenger"/>
    <trip id="273" depart="82.34" from="B1C1.80.00" to="E0bottom4" type="passenger"/>
    <trip id="274" depart="83.29" from="right1E1.80.00" to="D3C3.80.00" type="passenger"/>
    <trip id="275" depart="83.33" from="left3A3.80.00" to="C0D0.80.00" type="passenger"/>
    <trip id="276" depart="83.92" from="C3D3.80.00" to="E0D0.80.00" type="passenger"/>
    <trip id="277" depart="84.25" from="A2A1.80.00" to="left4A4.80.00" type="passenger"/>
    <trip id="278" depart="84.51" from="A4A3.80.00" to="top0A4.80.00" type="passenger"/>
    <trip id="279" depart="84.62" from="B0C0" to="top3D4.80.00" type="passenger"/>
    <trip id="280" depart="84.93" from="top0A4.80.00" to="B4C4" type="passenger"/>
    <trip id="281" depart="84.97" from="bottom2C0.80.00" to="A2A3.80.00" type="passenger"/>
    <trip id="282" depart="85.01" from="C3C2" to="D3D4" type="passenger"/>
    <trip id="283" depart="85.05" from="C2C3" to="right2E2.80.00" type="passenger"/>
    <trip id="284" depart="85.14" from="B1C1" to="right0E0.80.00" type="passenger"/>
    <trip id="285" depart="85.98" from="B3A3.80.00" to="D0E0.80.00" type="passenger"/>
    <trip id="286" depart="86.23" from="B2C2.80.00" to="A2A1" type="passenger"/>
    <trip id="287" depart="87.28" from="C2C1" to="right4E4.80.00" type="passenger"/>
    <trip id="288" depart="87.34" from="D1D2.80.00" to="A4B4" type="passenger"/>
    <trip id="289" depart="87.53" from="bottom0A0" to="A1A0" type="passenger"/>
    <trip id="290" depart="88.09" from="top3D4" to="B4A4" type="passenger"/>
    <trip id="291" depart="88.34" from="E4D4" to="D3D2" type="passenger"/>
    <trip id="292" depart="88.43" from="D2E2.80.00" to="D3C3" type="passenger"/>
    <trip id="293" depart="88.66" from="A3A2.80.00" to="A0B0" type="passenger"/>
    <trip id="294" depart="88.82" from="C1C2.80.00" to="D2C2.80.00" type="passenger"/>
    <trip id="295" depart="88.89" from="B3B4.80.00" to="B0A0.80.00" type="passenger"/>
    <trip id="296" depart="88.94" from="right3E3" to="B1B0" type="passenger"/>
    <trip id="297" depart="89.38" from="B2B3.80.00" to="B4top1" type="passenger"/>
    <trip id="298" depart="89.50" from="A1A2" to="B1B0.80.00" type="passenger"/>
    <trip id="299" depart="89.51" from="bottom4E0" to="D2E2" type="passenger"/>
    <trip id="300" depart="90.27" from="left4A4.80.00" to="right4E4.80.00" type="passenger"/>
    <trip id="301" depart="90.73" from="D2D1.80.00" to="D4E4" type="passenger"/>
    <trip id="302" depart="90.99" from="A0B0.80.00" to="D4top3" type="passenger"/>
    <trip id="303" depart="91.12" from="D1E1.80.00" to="B0B1" type="passenger"/>
    <trip id="304" depart="92.38" from="B2B3.80.00" to="right2E2.80.00" type="passenger"/>
    <trip id="305" depart="92.50" from="B4B3.80.00" to="B2C2.80.00" type="passenger"/>
    <trip id="306" depart="94.36" from="top3D4.80.00" to="D3D4" type="passenger"/>
    <trip id="307" depart="94.47" from="B2B1.80.00" to="B1C1" type="passenger"/>
    <trip id="308" depart="94.74" from="C3C2" to="C2C3.80.00" type="passenger"/>
    <trip id="309" depart="95.34" from="B1B0" to="D4E4.80.00" type="passenger"/>
    <trip id="310" depart="95.57" from="E0D0" to="B0C0.80.00" type="passenger"/>
    <trip id="311" depart="96.12" from="top1B4" to="D0C0.80.00" type="passenger"/>
    <trip id="312" depart="96.70" from="E1E0.80.00" to="A4B4" type="passenger"/>
    <trip id="313" depart="96.94" from="C4D4" to="C1C0" type="passenger"/>
    <trip id="314" depart="97.26" from="C4C3" to="E2E1.80.00" type="passenger"/>
    <trip id="315" depart="97.50" from="B0A0" to="E0right0" type="passenger"/>
    <trip id="316" depart="98.47" from="E3E2.80.00" to="B4top1" type="passenger"/>
    <trip id="317" depart="99.04" from="B4A4" to="A1B1.80.00" type="passenger"/>
    <trip id="318" depart="99.15" from="top1B4" to="D4C4.80.00" type="passenger"/>
    <trip id="319" depart="99.15" from="left1A1.80.00" to="A3A4" type="passenger"/>
    <trip id="320" depart="99.52" from="bottom3D0.80.00" to="D4D3" type="passenger"/>
    <trip id="321" depart="99.89" from="E0D0" to="C1C2" type="passenger"/>
    <trip id="322" depart="100.54" from="D4E4.80.00" to="A1A0.80.00" type="passenger"/>
    <trip id="323" depart="100.73" from="right1E1.80.00" to="A1A2.80.00" type="passenger"/>
    <trip id="324" depart="101.00" from="C3C2" to="C4top2" type="passenger"/>
    <trip id="325" depart="101.27" from="bottom0A0.80.00" to="B3B4.80.00" type="passenger"/>
    <trip id="326" depart="101.80" from="B0B1.80.00" to="bottom2C0.80.00" type="passenger"/>
    <trip id="327" depart="102.93" from="B0C0.80.00" to="left4A4.80.00" type="passenger"/>
    <trip id="328" depart="102.97" from="bottom4E0" to="D0D1" type="passenger"/>
    <trip id="329" depart="103.03" from="D1D0.80.00" to="C4D4" type="passenger"/>
    <trip id="330" depart="103.06" from="D2C2.80.00" to="C0bottom2" type="passenger"/>
    <trip id="331" depart="103.72" from="C3C2.80.00" to="D2D3" type="passenger"/>
    <trip id="332" depart="103.74" from="B2B1" to="C4top2" type="passenger"/>
    <trip id="333" depart="104.29" from="D2D1" to="C2C3" type="passenger"/>
    <trip id="334" depart="104.61" from="A1A0.80.00" to="A1left1" type="passenger"/>
    <trip id="335" depart="105.14" from="D2D1" to="A4A3.80.00" type="passenger"/>
    <trip id="336" depart="105.31" from="E0D0" to="A2A3" type="passenger"/>
    <trip id="337" depart="105.40" from="E1D1" to="D2C2.80.00" type="passenger"/>
    <trip id="338" depart="105.54" from="C1C0" to="B3B2" type="passenger"/>
    <trip id="339" depart="105.64" from="B3B4.80.00" to="B0bottom1" type="passenger"/>
    <trip id="340" depart="106.24" from="B0B1.80.00" to="C2D2" type="passenger"/>
    <trip id="341" depart="107.06" from="E3D3" to="D2D3.80.00" type="passenger"/>
    <trip id="342" depart="107.30" from="C0D0" to="E1D1" type="passenger"/>
    <trip id="343" depart="107.31" from="bottom1B0" to="C0D0.80.00" type="passenger"/>
    <trip id="344" depart="107.32" from="top3D4" to="C4C3.80.00" type="passenger"/>
    <trip id="345" depart="107.71" from="B4B3.80.00" to="C2D2.80.00" type="passenger"/>
    <trip id="346" depart="108.34" from="right1E1.80.00" to="C3C2" type="passenger"/>
    <trip id="347" depart="108.46" from="E3E4" to="E1E0.80.00" type="passenger"/>
    <trip id="348" depart="108.52" from="B1B0" to="B2C2" type="passenger"/>
    <trip id="349" depart="108.55" from="B2A2" to="C3B3" type="passenger"/>
    <trip id="350" depart="108.62" from="right0E0.80.00" to="A2A1" type="passenger"/>
    <trip id="351" depart="108.62" from="B1B0.80.00" to="C4top2" type="passenger"/>