<?xml version="1.0" encoding="UTF-8"?>

<!-- generated on 2023-04-26 16:56:45.336250 by randomTrips.py UNKNOWN
<configuration>
    <begin value="0"/>
    <end value="900"/>
    <insertion-rate value="8000.0"/>
    <net-file value="/home/franky3er/Documents/code/HieraGLight/scenarios/grid/1x1-500m/train/27-scenario/network.net.xml"/>
    <random value="True"/>
    <random-depart value="True"/>
    <route-file value="/home/franky3er/Documents/code/HieraGLight/scenarios/grid/1x1-500m/train/27-scenario/routes.rou.xml"/>
    <seed value="27"/>
    <output-trip-file value="/home/franky3er/Documents/code/HieraGLight/scenarios/grid/1x1-500m/train/27-scenario/trips.trips.xml"/>
    <vehicle-class value="passenger"/>
</configuration>
-->

<!-- generated on 2023-04-26 16:56:45 by Eclipse SUMO duarouter Version 1.16.0
<configuration xmlns:xsi="http://www.w3.org/2001/XMLSchema-instance" xsi:noNamespaceSchemaLocation="http://sumo.dlr.de/xsd/duarouterConfiguration.xsd">

    <input>
        <net-file value="/home/franky3er/Documents/code/HieraGLight/scenarios/grid/1x1-500m/train/27-scenario/network.net.xml"/>
        <route-files value="/home/franky3er/Documents/code/HieraGLight/scenarios/grid/1x1-500m/train/27-scenario/trips.trips.xml"/>
    </input>

    <output>
        <output-file value="/home/franky3er/Documents/code/HieraGLight/scenarios/grid/1x1-500m/train/27-scenario/routes.rou.xml"/>
        <alternatives-output value="NUL"/>
    </output>

    <time>
        <begin value="0"/>
        <end value="900"/>
    </time>

    <report>
        <no-warnings value="true"/>
        <ignore-errors value="true"/>
        <no-step-log value="true"/>
    </report>

</configuration>
-->

<routes xmlns:xsi="http://www.w3.org/2001/XMLSchema-instance" xsi:noNamespaceSchemaLocation="http://sumo.dlr.de/xsd/routes_file.xsd">
    <vType id="passenger" vClass="passenger"/>
    <vehicle id="0" type="passenger" depart="1.05">
        <route edges="right0A0.250.00 A0left0"/>
    </vehicle>
    <vehicle id="1" type="passenger" depart="1.05">
        <route edges="top0A0 top0A0.250.00 A0left0"/>
    </vehicle>
    <vehicle id="5" type="passenger" depart="3.60">
        <route edges="bottom0A0 bottom0A0.250.00 A0left0"/>
    </vehicle>
    <vehicle id="7" type="passenger" depart="4.45">
        <route edges="bottom0A0.250.00"/>
    </vehicle>
    <vehicle id="8" type="passenger" depart="4.50">
        <route edges="left0A0.250.00 A0bottom0"/>
    </vehicle>
    <vehicle id="9" type="passenger" depart="5.40">
        <route edges="bottom0A0.250.00 A0top0"/>
    </vehicle>
    <vehicle id="13" type="passenger" depart="7.55">
        <route edges="bottom0A0 bottom0A0.250.00"/>
    </vehicle>
    <vehicle id="14" type="passenger" depart="7.95">
        <route edges="right0A0 right0A0.250.00 A0top0"/>
    </vehicle>
    <vehicle id="16" type="passenger" depart="8.35">
        <route edges="bottom0A0 bottom0A0.250.00 A0left0"/>
    </vehicle>
    <vehicle id="17" type="passenger" depart="8.35">
        <route edges="bottom0A0.250.00 A0top0"/>
    </vehicle>
    <vehicle id="22" type="passenger" depart="13.15">
        <route edges="bottom0A0 bottom0A0.250.00 A0right0"/>
    </vehicle>
    <vehicle id="23" type="passenger" depart="14.75">
        <route edges="right0A0.250.00 A0bottom0"/>
    </vehicle>
    <vehicle id="26" type="passenger" depart="14.90">
        <route edges="right0A0 right0A0.250.00"/>
    </vehicle>
    <vehicle id="27" type="passenger" depart="15.40">
        <route edges="top0A0 top0A0.250.00 A0left0"/>
    </vehicle>
    <vehicle id="29" type="passenger" depart="15.60">
        <route edges="bottom0A0 bottom0A0.250.00"/>
    </vehicle>
    <vehicle id="33" type="passenger" depart="17.10">
        <route edges="top0A0 top0A0.250.00"/>
    </vehicle>
    <vehicle id="34" type="passenger" depart="17.55">
        <route edges="top0A0 top0A0.250.00 A0left0"/>
    </vehicle>
    <vehicle id="37" type="passenger" depart="18.10">
        <route edges="bottom0A0.250.00"/>
    </vehicle>
    <vehicle id="40" type="passenger" depart="18.95">
        <route edges="top0A0 top0A0.250.00"/>
    </vehicle>
    <vehicle id="41" type="passenger" depart="19.10">
        <route edges="bottom0A0 bottom0A0.250.00"/>
    </vehicle>
    <vehicle id="42" type="passenger" depart="19.50">
        <route edges="right0A0 right0A0.250.00"/>
    </vehicle>
    <vehicle id="43" type="passenger" depart="19.75">
        <route edges="left0A0 left0A0.250.00"/>
    </vehicle>
    <vehicle id="44" type="passenger" depart="20.30">
        <route edges="right0A0 right0A0.250.00 A0bottom0"/>
    </vehicle>
    <vehicle id="45" type="passenger" depart="20.65">
        <route edges="right0A0 right0A0.250.00 A0left0"/>
    </vehicle>
    <vehicle id="47" type="passenger" depart="22.45">
        <route edges="top0A0 top0A0.250.00"/>
    </vehicle>
    <vehicle id="50" type="passenger" depart="23.05">
        <route edges="bottom0A0.250.00 A0top0"/>
    </vehicle>
    <vehicle id="51" type="passenger" depart="23.60">
        <route edges="bottom0A0.250.00 A0left0"/>
    </vehicle>
    <vehicle id="52" type="passenger" depart="24.20">
        <route edges="left0A0 left0A0.250.00 A0top0"/>
    </vehicle>
    <vehicle id="55" type="passenger" depart="25.60">
        <route edges="top0A0.250.00"/>
    </vehicle>
    <vehicle id="56" type="passenger" depart="25.65">
        <route edges="right0A0.250.00 A0bottom0"/>
    </vehicle>
    <vehicle id="58" type="passenger" depart="26.30">
        <route edges="left0A0.250.00"/>
    </vehicle>
    <vehicle id="59" type="passenger" depart="27.10">
        <route edges="right0A0.250.00 A0bottom0"/>
    </vehicle>
    <vehicle id="61" type="passenger" depart="29.25">
        <route edges="bottom0A0.250.00 A0right0"/>
    </vehicle>
    <vehicle id="67" type="passenger" depart="30.55">
        <route edges="left0A0.250.00 A0top0"/>
    </vehicle>
    <vehicle id="70" type="passenger" depart="31.35">
        <route edges="left0A0 left0A0.250.00 A0bottom0"/>
    </vehicle>
    <vehicle id="72" type="passenger" depart="32.15">
        <route edges="left0A0.250.00 A0right0"/>
    </vehicle>
    <vehicle id="73" type="passenger" depart="32.45">
        <route edges="left0A0 left0A0.250.00 A0right0"/>
    </vehicle>
    <vehicle id="76" type="passenger" depart="33.65">
        <route edges="bottom0A0 bottom0A0.250.00"/>
    </vehicle>
    <vehicle id="78" type="passenger" depart="36.05">
        <route edges="right0A0.250.00 A0top0"/>
    </vehicle>
    <vehicle id="79" type="passenger" depart="36.30">
        <route edges="top0A0.250.00 A0left0"/>
    </vehicle>
    <vehicle id="80" type="passenger" depart="36.35">
        <route edges="bottom0A0 bottom0A0.250.00 A0left0"/>
    </vehicle>
    <vehicle id="82" type="passenger" depart="37.15">
        <route edges="right0A0 right0A0.250.00 A0bottom0"/>
    </vehicle>
    <vehicle id="84" type="passenger" depart="37.55">
        <route edges="bottom0A0.250.00 A0left0"/>
    </vehicle>
    <vehicle id="85" type="passenger" depart="37.85">
        <route edges="bottom0A0.250.00 A0left0"/>
    </vehicle>
    <vehicle id="87" type="passenger" depart="39.20">
        <route edges="left0A0 left0A0.250.00 A0top0"/>
    </vehicle>
    <vehicle id="88" type="passenger" depart="39.55">
        <route edges="top0A0 top0A0.250.00"/>
    </vehicle>
    <vehicle id="90" type="passenger" depart="40.55">
        <route edges="top0A0 top0A0.250.00"/>
    </vehicle>
    <vehicle id="91" type="passenger" depart="40.80">
        <route edges="right0A0.250.00 A0bottom0"/>
    </vehicle>
    <vehicle id="98" type="passenger" depart="44.40">
        <route edges="bottom0A0 bottom0A0.250.00 A0left0"/>
    </vehicle>
    <vehicle id="101" type="passenger" depart="45.95">
        <route edges="right0A0.250.00 A0left0"/>
    </vehicle>
    <vehicle id="102" type="passenger" depart="46.20">
        <route edges="bottom0A0.250.00 A0top0"/>
    </vehicle>
    <vehicle id="103" type="passenger" depart="46.25">
        <route edges="bottom0A0.250.00 A0right0"/>
    </vehicle>
    <vehicle id="105" type="passenger" depart="46.75">
        <route edges="bottom0A0 bottom0A0.250.00 A0left0"/>
    </vehicle>
    <vehicle id="106" type="passenger" depart="48.60">
        <route edges="top0A0.250.00 A0left0"/>
    </vehicle>
    <vehicle id="109" type="passenger" depart="50.50">
        <route edges="top0A0 top0A0.250.00 A0right0"/>
    </vehicle>
    <vehicle id="110" type="passenger" depart="50.65">
        <route edges="right0A0 right0A0.250.00 A0top0"/>
    </vehicle>
    <vehicle id="114" type="passenger" depart="52.45">
        <route edges="top0A0 top0A0.250.00 A0bottom0"/>
    </vehicle>
    <vehicle id="115" type="passenger" depart="52.60">
        <route edges="bottom0A0 bottom0A0.250.00 A0left0"/>
    </vehicle>
    <vehicle id="116" type="passenger" depart="53.85">
        <route edges="top0A0.250.00 A0bottom0"/>
    </vehicle>
    <vehicle id="117" type="passenger" depart="54.45">
        <route edges="right0A0.250.00 A0top0"/>
    </vehicle>
    <vehicle id="122" type="passenger" depart="56.40">
        <route edges="top0A0 top0A0.250.00 A0right0"/>
    </vehicle>
    <vehicle id="123" type="passenger" depart="56.80">
        <route edges="left0A0 left0A0.250.00"/>
    </vehicle>
    <vehicle id="124" type="passenger" depart="57.60">
        <route edges="bottom0A0 bottom0A0.250.00"/>
    </vehicle>
    <vehicle id="126" type="passenger" depart="59.20">
        <route edges="right0A0.250.00 A0bottom0"/>
    </vehicle>
    <vehicle id="127" type="passenger" depart="59.85">
        <route edges="bottom0A0 bottom0A0.250.00 A0left0"/>
    </vehicle>
    <vehicle id="128" type="passenger" depart="60.10">
        <route edges="right0A0 right0A0.250.00 A0bottom0"/>
    </vehicle>
    <vehicle id="133" type="passenger" depart="61.00">
        <route edges="right0A0.250.00"/>
    </vehicle>
    <vehicle id="136" type="passenger" depart="62.00">
        <route edges="right0A0.250.00 A0left0"/>
    </vehicle>
    <vehicle id="140" type="passenger" depart="63.25">
        <route edges="top0A0.250.00"/>
    </vehicle>
    <vehicle id="141" type="passenger" depart="63.35">
        <route edges="left0A0.250.00"/>
    </vehicle>
    <vehicle id="142" type="passenger" depart="64.45">
        <route edges="right0A0.250.00"/>
    </vehicle>
    <vehicle id="146" type="passenger" depart="66.70">
        <route edges="top0A0 top0A0.250.00 A0bottom0"/>
    </vehicle>
    <vehicle id="149" type="passenger" depart="67.80">
        <route edges="left0A0.250.00 A0right0"/>
    </vehicle>
    <vehicle id="152" type="passenger" depart="69.20">
        <route edges="top0A0.250.00"/>
    </vehicle>
    <vehicle id="155" type="passenger" depart="69.55">
        <route edges="bottom0A0.250.00 A0left0"/>
    </vehicle>
    <vehicle id="156" type="passenger" depart="69.65">
        <route edges="left0A0.250.00 A0bottom0"/>
    </vehicle>
    <vehicle id="157" type="passenger" depart="70.65">
        <route edges="right0A0.250.00"/>
    </vehicle>
    <vehicle id="158" type="passenger" depart="71.00">
        <route edges="bottom0A0.250.00 A0top0"/>
    </vehicle>
    <vehicle id="159" type="passenger" depart="72.35">
        <route edges="right0A0 right0A0.250.00 A0left0"/>
    </vehicle>
    <vehicle id="161" type="passenger" depart="72.75">
        <route edges="right0A0 right0A0.250.00 A0top0"/>
    </vehicle>
    <vehicle id="163" type="passenger" depart="73.10">
        <route edges="left0A0.250.00"/>
    </vehicle>
    <vehicle id="164" type="passenger" depart="73.10">
        <route edges="right0A0.250.00"/>
    </vehicle>
    <vehicle id="165" type="passenger" depart="73.30">
        <route edges="top0A0.250.00 A0bottom0"/>
    </vehicle>
    <vehicle id="166" type="passenger" depart="73.40">
        <route edges="left0A0.250.00 A0top0"/>
    </vehicle>
    <vehicle id="167" type="passenger" depart="74.05">
        <route edges="top0A0.250.00 A0right0"/>
    </vehicle>
    <vehicle id="170" type="passenger" depart="74.90">
        <route edges="top0A0.250.00"/>
    </vehicle>
    <vehicle id="172" type="passenger" depart="75.40">
        <route edges="left0A0.250.00 A0right0"/>
    </vehicle>
    <vehicle id="177" type="passenger" depart="78.05">
        <route edges="right0A0 right0A0.250.00 A0left0"/>
    </vehicle>
    <vehicle id="178" type="passenger" depart="78.20">
        <route edges="right0A0 right0A0.250.00"/>
    </vehicle>
    <vehicle id="179" type="passenger" depart="78.75">
        <route edges="top0A0 top0A0.250.00 A0bottom0"/>
    </vehicle>
    <vehicle id="180" type="passenger" depart="79.50">
        <route edges="top0A0 top0A0.250.00 A0right0"/>
    </vehicle>
    <vehicle id="181" type="passenger" depart="79.60">
        <route edges="top0A0 top0A0.250.00 A0left0"/>
    </vehicle>
    <vehicle id="183" type="passenger" depart="79.90">
        <route edges="right0A0 right0A0.250.00"/>
    </vehicle>
    <vehicle id="184" type="passenger" depart="80.70">
        <route edges="bottom0A0 bottom0A0.250.00"/>
    </vehicle>
    <vehicle id="186" type="passenger" depart="82.15">
        <route edges="bottom0A0 bottom0A0.250.00 A0left0"/>
    </vehicle>
    <vehicle id="190" type="passenger" depart="83.55">
        <route edges="bottom0A0 bottom0A0.250.00 A0left0"/>
    </vehicle>
    <vehicle id="194" type="passenger" depart="85.30">
        <route edges="right0A0.250.00 A0left0"/>
    </vehicle>
    <vehicle id="195" type="passenger" depart="85.85">
        <route edges="top0A0.250.00 A0left0"/>
    </vehicle>
    <vehicle id="196" type="passenger" depart="85.95">
        <route edges="bottom0A0 bottom0A0.250.00"/>
    </vehicle>
    <vehicle id="201" type="passenger" depart="89.05">
        <route edges="right0A0 right0A0.250.00 A0left0"/>
    </vehicle>
    <vehicle id="203" type="passenger" depart="89.20">
        <route edges="left0A0.250.00 A0right0"/>
    </vehicle>
    <vehicle id="205" type="passenger" depart="90.65">
        <route edges="top0A0.250.00"/>
    </vehicle>
    <vehicle id="207" type="passenger" depart="93.30">
        <route edges="bottom0A0 bottom0A0.250.00"/>
    </vehicle>
    <vehicle id="209" type="passenger" depart="93.60">
        <route edges="right0A0 right0A0.250.00 A0top0"/>
    </vehicle>
    <vehicle id="211" type="passenger" depart="94.75">
        <route edges="top0A0.250.00 A0bottom0"/>
    </vehicle>
    <vehicle id="212" type="passenger" depart="95.25">
        <route edges="right0A0.250.00 A0left0"/>
    </vehicle>
    <vehicle id="213" type="passenger" depart="95.70">
        <route edges="top0A0 top0A0.250.00 A0right0"/>
    </vehicle>
    <vehicle id="214" type="passenger" depart="96.40">
        <route edges="top0A0 top0A0.250.00 A0bottom0"/>
    </vehicle>
    <vehicle id="216" type="passenger" depart="97.90">
        <route edges="bottom0A0 bottom0A0.250.00 A0left0"/>
    </vehicle>
    <vehicle id="221" type="passenger" depart="101.85">
        <route edges="top0A0 top0A0.250.00 A0left0"/>
    </vehicle>
    <vehicle id="227" type="passenger" depart="104.65">
        <route edges="left0A0.250.00 A0bottom0"/>
    </vehicle>
    <vehicle id="229" type="passenger" depart="105.90">
        <route edges="top0A0 top0A0.250.00 A0left0"/>
    </vehicle>
    <vehicle id="230" type="passenger" depart="106.20">
        <route edges="left0A0 left0A0.250.00 A0top0"/>
    </vehicle>
    <vehicle id="233" type="passenger" depart="108.40">
        <route edges="left0A0.250.00 A0bottom0"/>
    </vehicle>
    <vehicle id="234" type="passenger" depart="109.05">
        <route edges="bottom0A0.250.00"/>
    </vehicle>
    <vehicle id="235" type="passenger" depart="109.80">
        <route edges="top0A0 top0A0.250.00 A0right0"/>
    </vehicle>
    <vehicle id="236" type="passenger" depart="111.25">
        <route edges="left0A0.250.00 A0top0"/>
    </vehicle>
    <vehicle id="237" type="passenger" depart="112.40">
        <route edges="right0A0 right0A0.250.00 A0bottom0"/>
    </vehicle>
    <vehicle id="239" type="passenger" depart="113.20">
        <route edges="bottom0A0.250.00 A0top0"/>
    </vehicle>
    <vehicle id="243" type="passenger" depart="114.75">
        <route edges="right0A0.250.00 A0left0"/>
    </vehicle>
    <vehicle id="244" type="passenger" depart="115.15">
        <route edges="bottom0A0 bottom0A0.250.00 A0right0"/>
    </vehicle>
    <vehicle id="245" type="passenger" depart="115.40">
        <route edges="bottom0A0 bottom0A0.250.00 A0left0"/>
    </vehicle>
    <vehicle id="246" type="passenger" depart="115.60">
        <route edges="bottom0A0.250.00"/>
    </vehicle>
    <vehicle id="247" type="passenger" depart="116.30">
        <route edges="left0A0.250.00"/>
    </vehicle>
    <vehicle id="252" type="passenger" depart="119.50">
        <route edges="top0A0 top0A0.250.00 A0right0"/>
    </vehicle>
    <vehicle id="255" type="passenger" depart="120.35">
        <route edges="top0A0.250.00 A0right0"/>
    </vehicle>
    <vehicle id="256" type="passenger" depart="120.50">
        <route edges="right0A0 right0A0.250.00 A0top0"/>
    </vehicle>
    <vehicle id="257" type="passenger" depart="120.65">
        <route edges="left0A0 left0A0.250.00 A0right0"/>
    </vehicle>
    <vehicle id="260" type="passenger" depart="123.40">
        <route edges="right0A0.250.00"/>
    </vehicle>
    <vehicle id="265" type="passenger" depart="126.60">
        <route edges="right0A0 right0A0.250.00 A0bottom0"/>
    </vehicle>
    <vehicle id="266" type="passenger" depart="127.85">
        <route edges="right0A0 right0A0.250.00 A0top0"/>
    </vehicle>
    <vehicle id="270" type="passenger" depart="128.75">
        <route edges="right0A0.250.00"/>
    </vehicle>
    <vehicle id="274" type="passenger" depart="131.25">
        <route edges="bottom0A0.250.00 A0left0"/>
    </vehicle>
    <vehicle id="276" type="passenger" depart="131.60">
        <route edges="bottom0A0.250.00 A0left0"/>
    </vehicle>
    <vehicle id="277" type="passenger" depart="132.00">
        <route edges="right0A0.250.00 A0left0"/>
    </vehicle>
    <vehicle id="278" type="passenger" depart="132.30">
        <route edges="left0A0.250.00 A0bottom0"/>
    </vehicle>
    <vehicle id="280" type="passenger" depart="132.80">
        <route edges="right0A0 right0A0.250.00"/>
    </vehicle>
    <vehicle id="281" type="passenger" depart="132.90">
        <route edges="bottom0A0 bottom0A0.250.00"/>
    </vehicle>
    <vehicle id="282" type="passenger" depart="133.80">
        <route edges="top0A0 top0A0.250.00 A0bottom0"/>
    </vehicle>
    <vehicle id="283" type="passenger" depart="134.85">
        <route edges="top0A0.250.00 A0bottom0"/>
    </vehicle>
    <vehicle id="284" type="passenger" depart="135.50">
        <route edges="bottom0A0 bottom0A0.250.00"/>
    </vehicle>
    <vehicle id="288" type="passenger" depart="136.00">
        <route edges="top0A0.250.00"/>
    </vehicle>
    <vehicle id="289" type="passenger" depart="136.30">
        <route edges="top0A0.250.00"/>
    </vehicle>
    <vehicle id="292" type="passenger" depart="137.90">
        <route edges="bottom0A0 bottom0A0.250.00 A0top0"/>
    </vehicle>
    <vehicle id="293" type="passenger" depart="138.85">
        <route edges="bottom0A0.250.00"/>
    </vehicle>
    <vehicle id="298" type="passenger" depart="141.40">
        <route edges="left0A0.250.00 A0bottom0"/>
    </vehicle>
    <vehicle id="299" type="passenger" depart="141.55">
        <route edges="bottom0A0 bottom0A0.250.00 A0left0"/>
    </vehicle>
    <vehicle id="300" type="passenger" depart="141.70">
        <route edges="bottom0A0.250.00 A0top0"/>
    </vehicle>
    <vehicle id="302" type="passenger" depart="142.75">
        <route edges="bottom0A0.250.00"/>
    </vehicle>
    <vehicle id="303" type="passenger" depart="142.85">
        <route edges="bottom0A0.250.00 A0left0"/>
    </vehicle>
    <vehicle id="304" type="passenger" depart="144.40">
        <route edges="right0A0.250.00 A0left0"/>
    </vehicle>
    <vehicle id="305" type="passenger" depart="144.60">
        <route edges="top0A0 top0A0.250.00 A0bottom0"/>
    </vehicle>
    <vehicle id="308" type="passenger" depart="145.75">
        <route edges="left0A0 left0A0.250.00 A0right0"/>
    </vehicle>
    <vehicle id="310" type="passenger" depart="147.10">
        <route edges="top0A0 top0A0.250.00 A0left0"/>
    </vehicle>
    <vehicle id="311" type="passenger" depart="147.50">
        <route edges="top0A0 top0A0.250.00 A0bottom0"/>
    </vehicle>
    <vehicle id="312" type="passenger" depart="147.75">
        <route edges="left0A0.250.00 A0bottom0"/>
    </vehicle>
    <vehicle id="314" type="passenger" depart="149.05">
        <route edges="bottom0A0.250.00 A0top0"/>
    </vehicle>
    <vehicle id="315" type="passenger" depart="149.30">
        <route edges="bottom0A0.250.00 A0left0"/>
    </vehicle>
    <vehicle id="316" type="passenger" depart="149.95">
        <route edges="right0A0.250.00"/>
    </vehicle>
    <vehicle id="318" type="passenger" depart="150.70">
        <route edges="top0A0 top0A0.250.00"/>
    </vehicle>
    <vehicle id="319" type="passenger" depart="150.70">
        <route edges="left0A0.250.00 A0bottom0"/>
    </vehicle>
    <vehicle id="320" type="passenger" depart="151.50">
        <route edges="bottom0A0 bottom0A0.250.00 A0right0"/>
    </vehicle>
    <vehicle id="322" type="passenger" depart="151.90">
        <route edges="bottom0A0 bottom0A0.250.00 A0left0"/>
    </vehicle>
    <vehicle id="326" type="passenger" depart="153.05">
        <route edges="left0A0.250.00 A0top0"/>
    </vehicle>
    <vehicle id="327" type="passenger" depart="153.65">
        <route edges="bottom0A0 bottom0A0.250.00 A0top0"/>
    </vehicle>
    <vehicle id="330" type="passenger" depart="155.85">
        <route edges="right0A0 right0A0.250.00"/>
    </vehicle>
    <vehicle id="331" type="passenger" depart="156.15">
        <route edges="top0A0 top0A0.250.00 A0bottom0"/>
    </vehicle>
    <vehicle id="334" type="passenger" depart="157.10">
        <route edges="right0A0 right0A0.250.00 A0left0"/>
    </vehicle>
    <vehicle id="335" type="passenger" depart="157.15">
        <route edges="right0A0 right0A0.250.00"/>
    </vehicle>
    <vehicle id="336" type="passenger" depart="157.50">
        <route edges="right0A0.250.00 A0top0"/>
    </vehicle>
    <vehicle id="338" type="passenger" depart="159.15">
        <route edges="right0A0 right0A0.250.00 A0bottom0"/>
    </vehicle>
    <vehicle id="341" type="passenger" depart="160.50">
        <route edges="left0A0.250.00 A0top0"/>
    </vehicle>
    <vehicle id="342" type="passenger" depart="161.35">
        <route edges="left0A0.250.00 A0bottom0"/>
    </vehicle>
    <vehicle id="343" type="passenger" depart="161.40">
        <route edges="bottom0A0.250.00 A0left0"/>
    </vehicle>
    <vehicle id="345" type="passenger" depart="163.00">
        <route edges="left0A0 left0A0.250.00 A0bottom0"/>
    </vehicle>
    <vehicle id="346" type="passenger" depart="163.05">
        <route edges="top0A0 top0A0.250.00 A0bottom0"/>
    </vehicle>
    <vehicle id="350" type="passenger" depart="164.15">
        <route edges="left0A0 left0A0.250.00 A0top0"/>
    </vehicle>
    <vehicle id="351" type="passenger" depart="164.55">
        <route edges="right0A0.250.00"/>
    </vehicle>
    <vehicle id="357" type="passenger" depart="166.10">
        <route edges="bottom0A0.250.00 A0top0"/>
    </vehicle>
    <vehicle id="358" type="passenger" depart="166.50">
        <route edges="right0A0 right0A0.250.00 A0bottom0"/>
    </vehicle>
    <vehicle id="359" type="passenger" depart="167.00">
        <route edges="right0A0 right0A0.250.00"/>
    </vehicle>
    <vehicle id="360" type="passenger" depart="167.20">
        <route edges="right0A0 right0A0.250.00 A0bottom0"/>
    </vehicle>
    <vehicle id="362" type="passenger" depart="167.85">
        <route edges="bottom0A0.250.00 A0top0"/>
    </vehicle>
    <vehicle id="364" type="passenger" depart="169.35">
        <route edges="bottom0A0 bottom0A0.250.00 A0right0"/>
    </vehicle>
    <vehicle id="365" type="passenger" depart="169.60">
        <route edges="right0A0.250.00 A0top0"/>
    </vehicle>
    <vehicle id="366" type="passenger" depart="169.75">
        <route edges="right0A0.250.00"/>
    </vehicle>
    <vehicle id="368" type="passenger" depart="170.75">
        <route edges="bottom0A0 bottom0A0.250.00 A0top0"/>
    </vehicle>
    <vehicle id="369" type="passenger" depart="171.40">
        <route edges="top0A0 top0A0.250.00 A0right0"/>
    </vehicle>
    <vehicle id="370" type="passenger" depart="171.55">
        <route edges="right0A0 right0A0.250.00"/>
    </vehicle>
    <vehicle id="371" type="passenger" depart="172.20">
        <route edges="top0A0 top0A0.250.00 A0left0"/>
    </vehicle>
    <vehicle id="372" type="passenger" depart="172.70">
        <route edges="top0A0 top0A0.250.00 A0bottom0"/>
    </vehicle>
    <vehicle id="377" type="passenger" depart="173.95">
        <route edges="bottom0A0 bottom0A0.250.00 A0right0"/>
    </vehicle>
    <vehicle id="380" type="passenger" depart="175.65">
        <route edges="right0A0 right0A0.250.00 A0bottom0"/>
    </vehicle>
    <vehicle id="383" type="passenger" depart="177.25">
        <route edges="bottom0A0.250.00 A0top0"/>
    </vehicle>
    <vehicle id="384" type="passenger" depart="177.75">
        <route edges="bottom0A0.250.00 A0left0"/>
    </vehicle>
    <vehicle id="387" type="passenger" depart="181.50">
        <route edges="bottom0A0.250.00"/>
    </vehicle>
    <vehicle id="390" type="passenger" depart="182.70">
        <route edges="right0A0.250.00 A0bottom0"/>
    </vehicle>
    <vehicle id="395" type="passenger" depart="184.25">
        <route edges="bottom0A0 bottom0A0.250.00 A0left0"/>
    </vehicle>
    <vehicle id="398" type="passenger" depart="184.65">
        <route edges="left0A0.250.00 A0bottom0"/>
    </vehicle>
    <vehicle id="399" type="passenger" depart="185.20">
        <route edges="top0A0.250.00 A0right0"/>
    </vehicle>
    <vehicle id="400" type="passenger" depart="185.55">
        <route edges="bottom0A0 bottom0A0.250.00"/>
    </vehicle>
    <vehicle id="403" type="passenger" depart="187.30">
        <route edges="top0A0.250.00 A0bottom0"/>
    </vehicle>
    <vehicle id="405" type="passenger" depart="188.15">
        <route edges="top0A0.250.00 A0bottom0"/>
    </vehicle>
    <vehicle id="409" type="passenger" depart="190.35">
        <route edges="right0A0.250.00 A0top0"/>
    </vehicle>
    <vehicle id="410" type="passenger" depart="191.25">
        <route edges="top0A0.250.00 A0right0"/>
    </vehicle>
    <vehicle id="412" type="passenger" depart="191.95">
        <route edges="left0A0.250.00 A0right0"/>
    </vehicle>
    <vehicle id="415" type="passenger" depart="193.10">
        <route edges="left0A0.250.00 A0right0"/>
    </vehicle>
    <vehicle id="419" type="passenger" depart="194.20">
        <route edges="right0A0 right0A0.250.00 A0left0"/>
    </vehicle>
    <vehicle id="420" type="passenger" depart="194.50">
        <route edges="top0A0.250.00 A0right0"/>
    </vehicle>
    <vehicle id="421" type="passenger" depart="194.90">
        <route edges="left0A0.250.00 A0top0"/>
    </vehicle>
    <vehicle id="424" type="passenger" depart="196.05">
        <route edges="top0A0 top0A0.250.00"/>
    </vehicle>
    <vehicle id="425" type="passenger" depart="197.25">
        <route edges="right0A0.250.00 A0top0"/>
    </vehicle>
    <vehicle id="430" type="passenger" depart="198.60">
        <route edges="bottom0A0.250.00 A0right0"/>
    </vehicle>
    <vehicle id="435" type="passenger" depart="200.40">
        <route edges="left0A0.250.00 A0top0"/>
    </vehicle>
    <vehicle id="436" type="passenger" depart="200.90">
        <route edges="left0A0 left0A0.250.00 A0bottom0"/>
    </vehicle>
    <vehicle id="440" type="passenger" depart="201.80">
        <route edges="bottom0A0 bottom0A0.250.00 A0right0"/>
    </vehicle>
    <vehicle id="443" type="passenger" depart="202.75">
        <route edges="right0A0 right0A0.250.00 A0bottom0"/>
    </vehicle>
    <vehicle id="446" type="passenger" depart="204.60">
        <route edges="left0A0 left0A0.250.00 A0bottom0"/>
    </vehicle>
    <vehicle id="447" type="passenger" depart="205.35">
        <route edges="bottom0A0 bottom0A0.250.00"/>
    </vehicle>
    <vehicle id="450" type="passenger" depart="205.85">
        <route edges="left0A0 left0A0.250.00 A0top0"/>
    </vehicle>
    <vehicle id="452" type="passenger" depart="206.40">
        <route edges="left0A0.250.00 A0top0"/>
    </vehicle>
    <vehicle id="454" type="passenger" depart="208.40">
        <route edges="right0A0.250.00"/>
    </vehicle>
    <vehicle id="456" type="passenger" depart="209.55">
        <route edges="top0A0.250.00 A0left0"/>
    </vehicle>
    <vehicle id="457" type="passenger" depart="209.60">
        <route edges="right0A0.250.00 A0top0"/>
    </vehicle>
    <vehicle id="458" type="passenger" depart="210.05">
        <route edges="top0A0 top0A0.250.00 A0right0"/>
    </vehicle>
    <vehicle id="462" type="passenger" depart="211.75">
        <route edges="top0A0.250.00 A0right0"/>
    </vehicle>
    <vehicle id="464" type="passenger" depart="212.30">
        <route edges="left0A0.250.00 A0right0"/>
    </vehicle>
    <vehicle id="465" type="passenger" depart="212.35">
        <route edges="left0A0.250.00 A0bottom0"/>
    </vehicle>
    <vehicle id="466" type="passenger" depart="213.60">
        <route edges="bottom0A0 bottom0A0.250.00 A0right0"/>
    </vehicle>
    <vehicle id="467" type="passenger" depart="214.35">
        <route edges="left0A0.250.00 A0top0"/>
    </vehicle>
    <vehicle id="470" type="passenger" depart="216.00">
        <route edges="top0A0.250.00"/>
    </vehicle>
    <vehicle id="471" type="passenger" depart="216.05">