<?xml version="1.0" encoding="UTF-8"?>

<!-- generated on 2023-02-12 18:47:15.325800 by randomTrips.py UNKNOWN
<configuration>
    <begin value="0"/>
    <end value="900"/>
    <insertion-rate value="12500.0"/>
    <net-file value="/home/franky3er/Documents/code/HieraGLight/scenarios/grid/5x5-150m/train/94-scenario/network.net.xml"/>
    <random value="True"/>
    <random-depart value="True"/>
    <route-file value="/home/franky3er/Documents/code/HieraGLight/scenarios/grid/5x5-150m/train/94-scenario/routes.rou.xml"/>
    <seed value="94"/>
    <output-trip-file value="/home/franky3er/Documents/code/HieraGLight/scenarios/grid/5x5-150m/train/94-scenario/trips.trips.xml"/>
    <vehicle-class value="passenger"/>
</configuration>
-->

<routes xmlns:xsi="http://www.w3.org/2001/XMLSchema-instance" xsi:noNamespaceSchemaLocation="http://sumo.dlr.de/xsd/routes_file.xsd">
    <vType id="passenger" vClass="passenger"/>
    <trip id="0" depart="0.38" from="B0A0" to="A2A1" type="passenger"/>
    <trip id="1" depart="0.47" from="A3A2" to="left0A0.80.00" type="passenger"/>
    <trip id="2" depart="0.58" from="C3B3.80.00" to="C3B3" type="passenger"/>
    <trip id="3" depart="0.87" from="D3D2.80.00" to="C4C3" type="passenger"/>
    <trip id="4" depart="0.99" from="C4C3.80.00" to="B4B3" type="passenger"/>
    <trip id="5" depart="1.52" from="D1D2" to="A3A4" type="passenger"/>
    <trip id="6" depart="1.52" from="bottom2C0" to="D3D2.80.00" type="passenger"/>
    <trip id="7" depart="1.66" from="C4B4.80.00" to="right2E2.80.00" type="passenger"/>
    <trip id="8" depart="1.77" from="D0E0.80.00" to="B3B2" type="passenger"/>
    <trip id="9" depart="2.17" from="C3B3.80.00" to="C4C3.80.00" type="passenger"/>
    <trip id="10" depart="2.34" from="A1B1.80.00" to="left1A1.80.00" type="passenger"/>
    <trip id="11" depart="2.43" from="left1A1" to="E0bottom4" type="passenger"/>
    <trip id="12" depart="3.38" from="B1B0" to="B2C2" type="passenger"/>
    <trip id="13" depart="4.11" from="top1B4" to="C3D3.80.00" type="passenger"/>
    <trip id="14" depart="4.20" from="right3E3.80.00" to="E4D4" type="passenger"/>
    <trip id="15" depart="4.37" from="D3D2" to="D3E3" type="passenger"/>
    <trip id="16" depart="4.41" from="right3E3" to="A1A0" type="passenger"/>
    <trip id="17" depart="4.59" from="C0B0" to="B1A1" type="passenger"/>
    <trip id="18" depart="4.63" from="B1B2.80.00" to="E0D0" type="passenger"/>
    <trip id="19" depart="4.66" from="top4E4.80.00" to="D4D3" type="passenger"/>
    <trip id="20" depart="4.73" from="D1E1" to="D0C0.80.00" type="passenger"/>
    <trip id="21" depart="4.79" from="C3C2" to="E0E1.80.00" type="passenger"/>
    <trip id="22" depart="4.90" from="A0B0" to="C0bottom2" type="passenger"/>
    <trip id="23" depart="4.94" from="top0A4.80.00" to="top3D4.80.00" type="passenger"/>
    <trip id="24" depart="5.30" from="A1B1" to="top0A4.80.00" type="passenger"/>
    <trip id="25" depart="5.30" from="C1C0" to="D3C3" type="passenger"/>
    <trip id="26" depart="5.43" from="D2D1" to="C0C1.80.00" type="passenger"/>
    <trip id="27" depart="5.57" from="E1D1.80.00" to="B2C2.80.00" type="passenger"/>
    <trip id="28" depart="5.70" from="E0D0.80.00" to="B2C2" type="passenger"/>
    <trip id="29" depart="5.98" from="B3B4" to="A3A4" type="passenger"/>
    <trip id="30" depart="6.48" from="B2B1.80.00" to="E4E3" type="passenger"/>
    <trip id="31" depart="6.98" from="E3E2.80.00" to="E0D0.80.00" type="passenger"/>
    <trip id="32" depart="7.77" from="D1D2.80.00" to="D3D2.80.00" type="passenger"/>
    <trip id="33" depart="8.11" from="B4B3.80.00" to="C2C1" type="passenger"/>
    <trip id="34" depart="8.47" from="B0B1.80.00" to="D1C1" type="passenger"/>
    <trip id="35" depart="8.48" from="B1B0" to="B4A4.80.00" type="passenger"/>
    <trip id="36" depart="9.18" from="A4A3" to="B2B1" type="passenger"/>
    <trip id="37" depart="9.22" from="bottom2C0.80.00" to="A3A4.80.00" type="passenger"/>
    <trip id="38" depart="9.30" from="B2A2.80.00" to="C2B2.80.00" type="passenger"/>
    <trip id="39" depart="9.50" from="D0D1" to="C3D3.80.00" type="passenger"/>
    <trip id="40" depart="9.56" from="E4D4" to="C3C4" type="passenger"/>
    <trip id="41" depart="10.45" from="A3A2.80.00" to="B1B0" type="passenger"/>
    <trip id="42" depart="11.22" from="B3A3.80.00" to="D2D3" type="passenger"/>
    <trip id="43" depart="11.59" from="E3D3" to="B1C1.80.00" type="passenger"/>
    <trip id="44" depart="12.50" from="A1A0.80.00" to="A0B0" type="passenger"/>
    <trip id="45" depart="12.80" from="C1C2.80.00" to="C0B0" type="passenger"/>
    <trip id="46" depart="13.14" from="C3C2.80.00" to="E0right0" type="passenger"/>
    <trip id="47" depart="13.29" from="C1B1.80.00" to="E3E2.80.00" type="passenger"/>
    <trip id="48" depart="13.31" from="A2A3.80.00" to="C2C3.80.00" type="passenger"/>
    <trip id="49" depart="13.69" from="A4A3" to="top0A4.80.00" type="passenger"/>
    <trip id="50" depart="13.78" from="D3D4.80.00" to="A1A2" type="passenger"/>
    <trip id="51" depart="14.05" from="D4C4.80.00" to="D1C1.80.00" type="passenger"/>
    <trip id="52" depart="14.10" from="D4E4.80.00" to="B3B2" type="passenger"/>
    <trip id="53" depart="14.34" from="E0D0" to="B2A2.80.00" type="passenger"/>
    <trip id="54" depart="14.45" from="A1A2.80.00" to="A4B4" type="passenger"/>
    <trip id="55" depart="14.65" from="D3D4" to="C2D2.80.00" type="passenger"/>
    <trip id="56" depart="14.66" from="B2A2.80.00" to="D4E4.80.00" type="passenger"/>
    <trip id="57" depart="14.83" from="bottom2C0" to="D3D2.80.00" type="passenger"/>
    <trip id="58" depart="15.04" from="A1A0.80.00" to="B4C4.80.00" type="passenger"/>
    <trip id="59" depart="15.22" from="A4B4.80.00" to="D3E3.80.00" type="passenger"/>
    <trip id="60" depart="16.28" from="E0E1" to="B4A4" type="passenger"/>
    <trip id="61" depart="16.39" from="B0C0.80.00" to="E2D2.80.00" type="passenger"/>
    <trip id="62" depart="16.66" from="A3A4" to="B2B1" type="passenger"/>
    <trip id="63" depart="16.82" from="C4C3.80.00" to="B3B4.80.00" type="passenger"/>
    <trip id="64" depart="17.04" from="bottom4E0.80.00" to="D3D4.80.00" type="passenger"/>
    <trip id="65" depart="17.65" from="C2D2.80.00" to="D1D0.80.00" type="passenger"/>
    <trip id="66" depart="17.75" from="C2B2" to="E1D1.80.00" type="passenger"/>
    <trip id="67" depart="18.37" from="B1C1.80.00" to="B2A2.80.00" type="passenger"/>
    <trip id="68" depart="18.48" from="C2C1.80.00" to="C1C0" type="passenger"/>
    <trip id="69" depart="18.63" from="bottom1B0" to="D2D1.80.00" type="passenger"/>
    <trip id="70" depart="18.72" from="C4B4" to="B1B0" type="passenger"/>
    <trip id="71" depart="19.14" from="C3C4" to="A1left1" type="passenger"/>
    <trip id="72" depart="19.49" from="B0B1" to="B3C3.80.00" type="passenger"/>
    <trip id="73" depart="19.78" from="left0A0" to="E0bottom4" type="passenger"/>
    <trip id="74" depart="20.14" from="A1A2" to="E0bottom4" type="passenger"/>
    <trip id="75" depart="20.23" from="B1B0.80.00" to="C3B3.80.00" type="passenger"/>
    <trip id="76" depart="20.90" from="D0E0" to="C1B1.80.00" type="passenger"/>
    <trip id="77" depart="21.19" from="right1E1" to="A3A4.80.00" type="passenger"/>
    <trip id="78" depart="21.95" from="D0C0" to="bottom1B0.80.00" type="passenger"/>
    <trip id="79" depart="22.30" from="A2A3.80.00" to="D4E4.80.00" type="passenger"/>
    <trip id="80" depart="22.36" from="E3E4" to="D3C3" type="passenger"/>
    <trip id="81" depart="22.98" from="D2C2" to="C4C3" type="passenger"/>
    <trip id="82" depart="23.18" from="right1E1.80.00" to="left1A1.80.00" type="passenger"/>
    <trip id="83" depart="23.50" from="D4E4.80.00" to="E2D2.80.00" type="passenger"/>
    <trip id="84" depart="23.66" from="D4D3" to="D3C3.80.00" type="passenger"/>
    <trip id="85" depart="23.96" from="C4C3" to="B0C0.80.00" type="passenger"/>
    <trip id="86" depart="24.42" from="A0A1.80.00" to="A0B0" type="passenger"/>
    <trip id="87" depart="25.19" from="C0B0.80.00" to="right3E3.80.00" type="passenger"/>
    <trip id="88" depart="25.37" from="C2C3" to="E4E3.80.00" type="passenger"/>
    <trip id="89" depart="25.46" from="A3A2" to="A4left4" type="passenger"/>
    <trip id="90" depart="26.52" from="D4E4.80.00" to="D0D1" type="passenger"/>
    <trip id="91" depart="26.71" from="B3B2" to="A2B2" type="passenger"/>
    <trip id="92" depart="26.78" from="C4C3" to="top2C4.80.00" type="passenger"/>
    <trip id="93" depart="26.82" from="E2E1.80.00" to="E4E3.80.00" type="passenger"/>
    <trip id="94" depart="26.85" from="B3B2.80.00" to="C3D3.80.00" type="passenger"/>
    <trip id="95" depart="26.89" from="D2C2" to="A3left3" type="passenger"/>
    <trip id="96" depart="27.21" from="A1B1" to="B4C4.80.00" type="passenger"/>
    <trip id="97" depart="27.57" from="D1D0" to="B0bottom1" type="passenger"/>
    <trip id="98" depart="27.59" from="B3C3" to="A3A4" type="passenger"/>
    <trip id="99" depart="27.72" from="left4A4.80.00" to="D1E1" type="passenger"/>
    <trip id="100" depart="27.75" from="top3D4" to="E1D1" type="passenger"/>
    <trip id="101" depart="28.58" from="B2A2.80.00" to="D1D0.80.00" type="passenger"/>
    <trip id="102" depart="28.62" from="D1D2" to="C4C3" type="passenger"/>
    <trip id="103" depart="28.76" from="left0A0" to="B4B3" type="passenger"/>
    <trip id="104" depart="29.02" from="bottom3D0.80.00" to="B2C2.80.00" type="passenger"/>
    <trip id="105" depart="29.27" from="B4A4.80.00" to="A1A0.80.00" type="passenger"/>
    <trip id="106" depart="29.84" from="bottom4E0.80.00" to="C3D3" type="passenger"/>
    <trip id="107" depart="30.10" from="D1C1" to="A4A3" type="passenger"/>
    <trip id="108" depart="30.18" from="B2B1.80.00" to="B1C1" type="passenger"/>
    <trip id="109" depart="30.47" from="D1D2" to="E0right0" type="passenger"/>
    <trip id="110" depart="30.50" from="A2B2" to="D3C3.80.00" type="passenger"/>
    <trip id="111" depart="30.82" from="A1A2.80.00" to="E1E2.80.00" type="passenger"/>
    <trip id="112" depart="31.07" from="C4C3" to="C3C4" type="passenger"/>
    <trip id="113" depart="31.14" from="B4C4.80.00" to="D4C4" type="passenger"/>
    <trip id="114" depart="31.20" from="left4A4.80.00" to="D1C1" type="passenger"/>
    <trip id="115" depart="31.23" from="C0C1.80.00" to="A2A1" type="passenger"/>
    <trip id="116" depart="31.33" from="D1E1" to="E2E1" type="passenger"/>
    <trip id="117" depart="31.34" from="C1B1.80.00" to="D4C4" type="passenger"/>
    <trip id="118" depart="31.70" from="C4B4.80.00" to="B1B2" type="passenger"/>
    <trip id="119" depart="32.32" from="B3A3" to="D2D1" type="passenger"/>
    <trip id="120" depart="32.36" from="left1A1.80.00" to="A0left0" type="passenger"/>
    <trip id="121" depart="32.59" from="D0E0.80.00" to="D2E2.80.00" type="passenger"/>
    <trip id="122" depart="32.89" from="bottom1B0.80.00" to="right4E4.80.00" type="passenger"/>
    <trip id="123" depart="32.90" from="C0B0.80.00" to="B2A2.80.00" type="passenger"/>
    <trip id="124" depart="33.51" from="bottom3D0.80.00" to="C3B3" type="passenger"/>
    <trip id="125" depart="33.58" from="E3D3" to="E3E4" type="passenger"/>
    <trip id="126" depart="34.06" from="B4A4.80.00" to="C1C0" type="passenger"/>
    <trip id="127" depart="34.22" from="C2C1" to="E3D3.80.00" type="passenger"/>
    <trip id="128" depart="34.46" from="top1B4" to="D2D1" type="passenger"/>
    <trip id="129" depart="35.29" from="D3D2.80.00" to="C4D4.80.00" type="passenger"/>
    <trip id="130" depart="35.58" from="A2B2.80.00" to="D4E4" type="passenger"/>
    <trip id="131" depart="36.50" from="D3E3.80.00" to="B3C3" type="passenger"/>
    <trip id="132" depart="36.51" from="E2E1.80.00" to="C2B2" type="passenger"/>
    <trip id="133" depart="36.90" from="A0B0" to="E2E3" type="passenger"/>
    <trip id="134" depart="36.91" from="B1B2.80.00" to="B0A0" type="passenger"/>
    <trip id="135" depart="37.26" from="right3E3.80.00" to="C0B0" type="passenger"/>
    <trip id="136" depart="37.27" from="A1B1.80.00" to="D1C1.80.00" type="passenger"/>
    <trip id="137" depart="37.65" from="left4A4.80.00" to="C2B2.80.00" type="passenger"/>
    <trip id="138" depart="37.75" from="D2D1.80.00" to="D2C2.80.00" type="passenger"/>
    <trip id="139" depart="38.34" from="bottom0A0.80.00" to="E4E3" type="passenger"/>
    <trip id="140" depart="38.80" from="D4E4" to="B4A4.80.00" type="passenger"/>
    <trip id="141" depart="38.84" from="E0D0.80.00" to="E1D1" type="passenger"/>
    <trip id="142" depart="39.05" from="D4C4.80.00" to="left0A0.80.00" type="passenger"/>
    <trip id="143" depart="39.15" from="A1A0.80.00" to="E2D2" type="passenger"/>
    <trip id="144" depart="39.29" from="right4E4" to="D3D4.80.00" type="passenger"/>
    <trip id="145" depart="39.91" from="D2E2" to="E3E2" type="passenger"/>
    <trip id="146" depart="39.97" from="D4D3.80.00" to="D1C1" type="passenger"/>
    <trip id="147" depart="40.41" from="D0E0.80.00" to="B4B3" type="passenger"/>
    <trip id="148" depart="40.45" from="A4A3.80.00" to="C0D0" type="passenger"/>
    <trip id="149" depart="40.46" from="E4E3.80.00" to="E2E1.80.00" type="passenger"/>
    <trip id="150" depart="40.48" from="left1A1" to="D2C2" type="passenger"/>
    <trip id="151" depart="41.50" from="B3C3" to="A0A1" type="passenger"/>
    <trip id="152" depart="41.79" from="D3D4.80.00" to="D2D3.80.00" type="passenger"/>
    <trip id="153" depart="42.18" from="E3E4" to="B1B2" type="passenger"/>
    <trip id="154" depart="42.30" from="D1E1" to="A1B1" type="passenger"/>
    <trip id="155" depart="42.51" from="D4E4" to="top4E4.80.00" type="passenger"/>
    <trip id="156" depart="43.10" from="A4B4" to="B4top1" type="passenger"/>
    <trip id="157" depart="43.18" from="C0B0.80.00" to="C0D0.80.00" type="passenger"/>
    <trip id="158" depart="43.26" from="E2E1.80.00" to="E3right3" type="passenger"/>
    <trip id="159" depart="43.34" from="E3E2" to="A1B1" type="passenger"/>
    <trip id="160" depart="43.37" from="bottom4E0" to="D3D2" type="passenger"/>
    <trip id="161" depart="43.83" from="A4A3" to="A1left1" type="passenger"/>
    <trip id="162" depart="43.85" from="top2C4" to="A0left0" type="passenger"/>
    <trip id="163" depart="44.12" from="B2B1.80.00" to="B0A0.80.00" type="passenger"/>
    <trip id="164" depart="44.52" from="A2B2.80.00" to="E3D3" type="passenger"/>
    <trip id="165" depart="44.54" from="B1B2" to="A1B1.80.00" type="passenger"/>
    <trip id="166" depart="44.86" from="A3A2.80.00" to="right3E3.80.00" type="passenger"/>
    <trip id="167" depart="45.97" from="C4B4" to="D2D3" type="passenger"/>
    <trip id="168" depart="46.13" from="right3E3.80.00" to="C0B0" type="passenger"/>
    <trip id="169" depart="46.70" from="B1C1" to="E0D0.80.00" type="passenger"/>
    <trip id="170" depart="46.82" from="D2C2" to="D2D1.80.00" type="passenger"/>
    <trip id="171" depart="47.20" from="C0D0" to="B2B3" type="passenger"/>
    <trip id="172" depart="47.54" from="C4D4.80.00" to="B2B3" type="passenger"/>
    <trip id="173" depart="47.62" from="D3E3" to="C2C3.80.00" type="passenger"/>
    <trip id="174" depart="47.74" from="B0B1.80.00" to="B3C3.80.00" type="passenger"/>
    <trip id="175" depart="47.81" from="D4D3" to="D1C1" type="passenger"/>
    <trip id="176" depart="48.18" from="C2B2.80.00" to="D4E4.80.00" type="passenger"/>
    <trip id="177" depart="48.44" from="E2E1.80.00" to="D1D2" type="passenger"/>
    <trip id="178" depart="48.53" from="bottom1B0" to="C4B4.80.00" type="passenger"/>
    <trip id="179" depart="49.23" from="D1E1.80.00" to="C3C4" type="passenger"/>
    <trip id="180" depart="49.30" from="E4E3.80.00" to="B3C3" type="passenger"/>
    <trip id="181" depart="51.41" from="D3D4.80.00" to="A2B2.80.00" type="passenger"/>
    <trip id="182" depart="51.44" from="C0B0.80.00" to="C2B2.80.00" type="passenger"/>
    <trip id="183" depart="51.51" from="left4A4" to="top1B4.80.00" type="passenger"/>
    <trip id="184" depart="51.59" from="B3B4.80.00" to="E3E4" type="passenger"/>
    <trip id="185" depart="51.60" from="C0C1.80.00" to="E0E1" type="passenger"/>
    <trip id="186" depart="52.09" from="A0B0.80.00" to="top2C4.80.00" type="passenger"/>
    <trip id="187" depart="52.38" from="E3E4.80.00" to="bottom2C0.80.00" type="passenger"/>
    <trip id="188" depart="52.38" from="A1A0.80.00" to="E3E4" type="passenger"/>
    <trip id="189" depart="53.62" from="B1C1" to="E2D2" type="passenger"/>
    <trip id="190" depart="53.84" from="C3C2" to="right1E1.80.00" type="passenger"/>
    <trip id="191" depart="54.06" from="E2E3" to="B3A3" type="passenger"/>
    <trip id="192" depart="54.30" from="B3B4" to="C0D0" type="passenger"/>
    <trip id="193" depart="54.42" from="B4A4" to="B4A4" type="passenger"/>
    <trip id="194" depart="54.56" from="C2C3.80.00" to="D4C4" type="passenger"/>
    <trip id="195" depart="54.67" from="A3A4.80.00" to="A3A4" type="passenger"/>
    <trip id="196" depart="55.10" from="right0E0.80.00" to="B3A3.80.00" type="passenger"/>
    <trip id="197" depart="55.90" from="A3A2" to="C3D3.80.00" type="passenger"/>
    <trip id="198" depart="56.21" from="B3B4.80.00" to="D2E2" type="passenger"/>
    <trip id="199" depart="56.45" from="C4D4.80.00" to="A2B2" type="passenger"/>
    <trip id="200" depart="56.96" from="B1C1.80.00" to="B4C4" type="passenger"/>
    <trip id="201" depart="57.59" from="D2D3" to="E0bottom4" type="passenger"/>
    <trip id="202" depart="57.62" from="E4E3" to="bottom3D0.80.00" type="passenger"/>
    <trip id="203" depart="57.78" from="C4D4.80.00" to="E0D0.80.00" type="passenger"/>
    <trip id="204" depart="57.94" from="B2C2" to="E4right4" type="passenger"/>
    <trip id="205" depart="58.08" from="C0B0" to="left1A1.80.00" type="passenger"/>
    <trip id="206" depart="58.60" from="C2C3.80.00" to="C4D4" type="passenger"/>
    <trip id="207" depart="59.46" from="right1E1" to="A0A1.80.00" type="passenger"/>
    <trip id="208" depart="60.73" from="B4C4.80.00" to="E1D1.80.00" type="passenger"/>
    <trip id="209" depart="61.38" from="A3A2" to="bottom3D0.80.00" type="passenger"/>
    <trip id="210" depart="61.50" from="C3C4" to="B3B4.80.00" type="passenger"/>
    <trip id="211" depart="62.13" from="D1C1" to="D0bottom3" type="passenger"/>
    <trip id="212" depart="62.67" from="C2C3" to="A3B3.80.00" type="passenger"/>
    <trip id="213" depart="62.81" from="D0C0" to="B3B2" type="passenger"/>
    <trip id="214" depart="63.30" from="B4B3.80.00" to="D1E1" type="passenger"/>
    <trip id="215" depart="63.48" from="C4D4" to="A1A0.80.00" type="passenger"/>
    <trip id="216" depart="63.58" from="D3D2" to="right1E1.80.00" type="passenger"/>
    <trip id="217" depart="63.60" from="B3B4" to="bottom2C0.80.00" type="passenger"/>
    <trip id="218" depart="63.74" from="C4B4.80.00" to="E3E2" type="passenger"/>
    <trip id="219" depart="63.78" from="E0D0" to="B4C4" type="passenger"/>
    <trip id="220" depart="64.05" from="E4E3.80.00" to="D0C0.80.00" type="passenger"/>
    <trip id="221" depart="64.50" from="B2B3.80.00" to="E0bottom4" type="passenger"/>
    <trip id="222" depart="64.79" from="left3A3" to="right1E1.80.00" type="passenger"/>
    <trip id="223" depart="65.06" from="D2D3.80.00" to="D3E3" type="passenger"/>
    <trip id="224" depart="65.40" from="B2C2.80.00" to="D2D3" type="passenger"/>
    <trip id="225" depart="65.61" from="top0A4.80.00" to="C0D0" type="passenger"/>
    <trip id="226" depart="65.82" from="D2C2" to="D3E3.80.00" type="passenger"/>
    <trip id="227" depart="66.30" from="top1B4" to="right2E2.80.00" type="passenger"/>
    <trip id="228" depart="66.43" from="left3A3.80.00" to="E4right4" type="passenger"/>
    <trip id="229" depart="67.37" from="D2E2.80.00" to="E4right4" type="passenger"/>
    <trip id="230" depart="67.41" from="B4B3.80.00" to="D4E4" type="passenger"/>
    <trip id="231" depart="67.49" from="B0B1" to="D4E4.80.00" type="passenger"/>
    <trip id="232" depart="67.91" from="D1D2" to="C0C1.80.00" type="passenger"/>
    <trip id="233" depart="68.22" from="B1A1" to="D3C3" type="passenger"/>
    <trip id="234" depart="68.34" from="C4D4" to="D4D3.80.00" type="passenger"/>
    <trip id="235" depart="68.38" from="A3A2" to="C2D2" type="passenger"/>
    <trip id="236" depart="68.56" from="top2C4" to="B4C4" type="passenger"/>
    <trip id="237" depart="68.85" from="E1E2" to="B1A1" type="passenger"/>
    <trip id="238" depart="68.94" from="B0B1" to="left4A4.80.00" type="passenger"/>
    <trip id="239" depart="69.04" from="C3C4" to="E2E1" type="passenger"/>
    <trip id="240" depart="69.14" from="right2E2" to="A0A1.80.00" type="passenger"/>
    <trip id="241" depart="69.19" from="A0A1.80.00" to="left4A4.80.00" type="passenger"/>
    <trip id="242" depart="69.78" from="C1D1.80.00" to="E4D4" type="passenger"/>
    <trip id="243" depart="70.06" from="C4D4" to="B0C0" type="passenger"/>
    <trip id="244" depart="70.25" from="right4E4" to="A2B2" type="passenger"/>
    <trip id="245" depart="71.26" from="B1B0" to="C1B1.80.00" type="passenger"/>
    <trip id="246" depart="71.32" from="right2E2" to="D2C2.80.00" type="passenger"/>
    <trip id="247" depart="71.47" from="E1E0" to="A1A2.80.00" type="passenger"/>
    <trip id="248" depart="71.51" from="E4D4.80.00" to="C3D3.80.00" type="passenger"/>
    <trip id="249" depart="71.66" from="E4D4" to="B4C4" type="passenger"/>
    <trip id="250" depart="72.34" from="right0E0.80.00" to="C1B1.80.00" type="passenger"/>
    <trip id="251" depart="72.82" from="B1B2.80.00" to="D1C1.80.00" type="passenger"/>
    <trip id="252" depart="74.12" from="D2D3" to="D3E3" type="passenger"/>
    <trip id="253" depart="74.15" from="A0B0.80.00" to="C1B1" type="passenger"/>
    <trip id="254" depart="74.42" from="C0D0.80.00" to="D3D4" type="passenger"/>
    <trip id="255" depart="74.55" from="C1C2" to="E2E3.80.00" type="passenger"/>
    <trip id="256" depart="74.69" from="top0A4" to="C3D3" type="passenger"/>
    <trip id="257" depart="74.82" from="top2C4" to="A3B3.80.00" type="passenger"/>
    <trip id="258" depart="75.06" from="C1C2.80.00" to="D1D2.80.00" type="passenger"/>
    <trip id="259" depart="75.25" from="A2A1" to="D4E4.80.00" type="passenger"/>
    <trip id="260" depart="75.46" from="top2C4" to="B3C3.80.00" type="passenger"/>
    <trip id="261" depart="75.49" from="B0C0" to="left3A3.80.00" type="passenger"/>
    <trip id="262" depart="75.90" from="C3C4.80.00" to="E4right4" type="passenger"/>
    <trip id="263" depart="75.90" from="B3B4.80.00" to="E4D4" type="passenger"/>
    <trip id="264" depart="75.94" from="A3B3.80.00" to="E4E3" type="passenger"/>
    <trip id="265" depart="76.05" from="C4D4" to="left3A3.80.00" type="passenger"/>
    <trip id="266" depart="76.21" from="left1A1.80.00" to="top4E4.80.00" type="passenger"/>
    <trip id="267" depart="76.33" from="bottom4E0.80.00" to="D0E0.80.00" type="passenger"/>
    <trip id="268" depart="76.78" from="D4E4" to="A0A1" type="passenger"/>
    <trip id="269" depart="76.86" from="A1B1" to="D1D0.80.00" type="passenger"/>
    <trip id="270" depart="77.45" from="D2D3" to="right4E4.80.00" type="passenger"/>
    <trip id="271" depart="77.46" from="D1C1.80.00" to="A0bottom0" type="passenger"/>
    <trip id="272" depart="77.83" from="right3E3.80.00" to="top4E4.80.00" type="passenger"/>
    <trip id="273" depart="77.97" from="A3A2" to="A4A3.80.00" type="passenger"/>
    <trip id="274" depart="77.97" from="E3E2" to="C3C4.80.00" type="passenger"/>
    <trip id="275" depart="78.02" from="A0A1" to="E2E1" type="passenger"/>
    <trip id="276" depart="80.12" from="B3B4.80.00" to="A4top0" type="passenger"/>
    <trip id="277" depart="80.70" from="C4B4" to="C1D1.80.00" type="passenger"/>
    <trip id="278" depart="80.90" from="B2B1" to="B3B2.80.00" type="passenger"/>
    <trip id="279" depart="80.96" from="left3A3.80.00" to="C3C2.80.00" type="passenger"/>
    <trip id="280" depart="80.99" from="C1C2.80.00" to="left4A4.80.00" type="passenger"/>
    <trip id="281" depart="81.33" from="C2C1" to="C1B1" type="passenger"/>
    <trip id="282" depart="82.78" from="E3E2" to="D1D2.80.00" type="passenger"/>
    <trip id="283" depart="82.81" from="B4B3" to="A3A4" type="passenger"/>
    <trip id="284" depart="82.87" from="C1B1" to="D2C2" type="passenger"/>
    <trip id="285" depart="82.94" from="A1B1.80.00" to="C3C2.80.00" type="passenger"/>
    <trip id="286" depart="83.10" from="A1A0.80.00" to="E0D0.80.00" type="passenger"/>
    <trip id="287" depart="83.23" from="A2B2" to="A3B3.80.00" type="passenger"/>
    <trip id="288" depart="84.16" from="A1A2" to="A3B3" type="passenger"/>
    <trip id="289" depart="84.55" from="A4B4.80.00" to="D1D2" type="passenger"/>
    <trip id="290" depart="84.62" from="C2C3.80.00" to="D0D1" type="passenger"/>
    <trip id="291" depart="84.85" from="E1D1" to="B1A1.80.00" type="passenger"/>
    <trip id="292" depart="85.02" from="top2C4" to="E4right4" type="passenger"/>
    <trip id="293" depart="85.09" from="D0C0" to="C0B0" type="passenger"/>
    <trip id="294" depart="85.66" from="D4E4" to="D2D3.80.00" type="passenger"/>
    <trip id="295" depart="87.34" from="left2A2.80.00" to="C1C2" type="passenger"/>
    <trip id="296" depart="87.34" from="right4E4.80.00" to="bottom2C0.80.00" type="passenger"/>
    <trip id="297" depart="87.46" from="D4E4" to="A0A1" type="passenger"/>
    <trip id="298" depart="88.30" from="A2A1.80.00" to="C2B2.80.00" type="passenger"/>
    <trip id="299" depart="88.42" from="top4E4.80.00" to="C0B0.80.00" type="passenger"/>
    <trip id="300" depart="88.54" from="C4B4" to="bottom0A0.80.00" type="passenger"/>
    <trip id="301" depart="88.55" from="A1B1" to="A0B0" type="passenger"/>
    <trip id="302" depart="88.60" from="D1D2" to="right2E2.80.00" type="passenger"/>
    <trip id="303" depart="88.69" from="D4E4" to="A2B2.80.00" type="passenger"/>
    <trip id="304" depart="89.26" from="C3C2.80.00" to="B3B2.80.00" type="passenger"/>
    <trip id="305" depart="89.45" from="E3E2" to="E1E0" type="passenger"/>
    <trip id="306" depart="90.35" from="D1E1" to="B3A3" type="passenger"/>
    <trip id="307" depart="91.18" from="D1D0" to="left3A3.80.00" type="passenger"/>
    <trip id="308" depart="91.27" from="B2C2" to="E4E3" type="passenger"/>
    <trip id="309" depart="91.30" from="E0E1" to="E3E2.80.00" type="passenger"/>
    <trip id="310" depart="91.42" from="B1B0" to="D2C2" type="passenger"/>
    <trip id="311" depart="91.45" from="C2D2.80.00" to="B4B3" type="passenger"/>
    <trip id="312" depart="91.55" from="E2D2.80.00" to="E3E2" type="passenger"/>
    <trip id="313" depart="91.78" from="B3B2" to="E0E1.80.00" type="passenger"/>
    <trip id="314" depart="92.35" from="D3D2" to="E2E1" type="passenger"/>
    <trip id="315" depart="92.44" from="A0B0" to="B0C0" type="passenger"/>
    <trip id="316" depart="92.78" from="top0A4" to="top0A4.80.00" type="passenger"/>
    <trip id="317" depart="93.06" from="bottom3D0" to="D4top3" type="passenger"/>
    <trip id="318" depart="93.16" from="B0B1.80.00" to="E2E3" type="passenger"/>
    <trip id="319" depart="93.35" from="left3A3" to="left3A3.80.00" type="passenger"/>
    <trip id="320" depart="93.64" from="D0E0.80.00" to="A2A1.80.00" type="passenger"/>
    <trip id="321" depart="93.90" from="B2C2" to="B3C3.80.00" type="passenger"/>
    <trip id="322" depart="93.93" from="top4E4.80.00" to="C1C0.80.00" type="passenger"/>
    <trip id="323" depart="94.03" from="C3C4.80.00" to="C4top2" type="passenger"/>
    <trip id="324" depart="94.04" from="C0C1.80.00" to="A1A0.80.00" type="passenger"/>
    <trip id="325" depart="94.35" from="D0D1" to="D0E0.80.00" type="passenger"/>
    <trip id="326" depart="94.63" from="B4C4.80.00" to="B3A3.80.00" type="passenger"/>
    <trip id="327" depart="94.86" from="C4B4" to="E4top4" type="passenger"/>
    <trip id="328" depart="95.00" from="left4A4.80.00" to="B1A1.80.00" type="passenger"/>
    <trip id="329" depart="95.02" from="C3C4.80.00" to="A2left2" type="passenger"/>
    <trip id="330" depart="95.07" from="D4C4.80.00" to="D0E0" type="passenger"/>
    <trip id="331" depart="95.26" from="B2B3.80.00" to="right4E4.80.00" type="passenger"/>
    <trip id="332" depart="95.66" from="A1A0.80.00" to="D4C4" type="passenger"/>
    <trip id="333" depart="95.89" from="A3B3" to="A2A3" type="passenger"/>
    <trip id="334" depart="95.99" from="B2B3.80.00" to="E3E2.80.00" type="passenger"/>
    <trip id="335" depart="96.89" from="D2C2.80.00" to="E1E0" type="passenger"/>
    <trip id="336" depart="96.93" from="D3D4.80.00" to="A0A1" type="passenger"/>
    <trip id="337" depart="97.14" from="bottom1B0" to="bottom4E0.80.00" type="passenger"/>
    <trip id="338" depart="97.39" from="B0A0" to="E3E2" type="passenger"/>
    <trip id="339" depart="97.54" from="E0E1" to="B2B3.80.00" type="passenger"/>
    <trip id="340" depart="97.59" from="B3B2.80.00" to="A2B2.80.00" type="passenger"/>
    <trip id="341" depart="97.94" from="E4E3" to="B1B2.80.00" type="passenger"/>
    <trip id="342" depart="98.18" from="left4A4" to="B1A1" type="passenger"/>
    <trip id="343" depart="98.18" from="B1B2" to="C4B4.80.00" type="passenger"/>
    <trip id="344" depart="98.36" from="A1B1.80.00" to="E2E3.80.00" type="passenger"/>
    <trip id="345" depart="98.43" from="top4E4.80.00" to="D0bottom3" type="passenger"/>
    <trip id="346" depart="98.86" from="C4C3" to="C2B2.80.00" type="passenger"/>
    <trip id="347" depart="98.97" from="A2A3" to="B0A0" type="passenger"/>
    <trip id="348" depart="100.07" from="left4A4" to="bottom1B0.80.00" type="passenger"/>
    <trip id="349" depart="100.15" from="B2A2.80.00" to="C4C3.80.00" type="passenger"/>
    <trip id="350" depart="100.64" from="B4A4.80.00" to="top3D4.80.00" type="passenger"/>
    <trip id="351" depart="101.14" from="top1B4.80.00" to="C0B0.80.00" type="passenger"/>
    <trip id="352" depart="101.25" from="right2E2" to="bottom2C0.80.00" type="passenger"/>
    <trip id="353" depart="101.81" from="E2D2" to="A1A0.80.00" type="passenger"/>
    <trip id="354" depart="101.97" from="E2E3" to="E1D1.80.00" type="passenger"/>