<?xml version="1.0" encoding="UTF-8"?>

<!-- generated on 2023-04-26 16:56:40.317240 by randomTrips.py UNKNOWN
<configuration>
    <begin value="0"/>
    <end value="900"/>
    <insertion-rate value="8000.0"/>
    <net-file value="/home/franky3er/Documents/code/HieraGLight/scenarios/grid/1x1-500m/train/15-scenario/network.net.xml"/>
    <random value="True"/>
    <random-depart value="True"/>
    <route-file value="/home/franky3er/Documents/code/HieraGLight/scenarios/grid/1x1-500m/train/15-scenario/routes.rou.xml"/>
    <seed value="15"/>
    <output-trip-file value="/home/franky3er/Documents/code/HieraGLight/scenarios/grid/1x1-500m/train/15-scenario/trips.trips.xml"/>
    <vehicle-class value="passenger"/>
</configuration>
-->

<!-- generated on 2023-04-26 16:56:40 by Eclipse SUMO duarouter Version 1.16.0
<configuration xmlns:xsi="http://www.w3.org/2001/XMLSchema-instance" xsi:noNamespaceSchemaLocation="http://sumo.dlr.de/xsd/duarouterConfiguration.xsd">

    <input>
        <net-file value="/home/franky3er/Documents/code/HieraGLight/scenarios/grid/1x1-500m/train/15-scenario/network.net.xml"/>
        <route-files value="/home/franky3er/Documents/code/HieraGLight/scenarios/grid/1x1-500m/train/15-scenario/trips.trips.xml"/>
    </input>

    <output>
        <output-file value="/home/franky3er/Documents/code/HieraGLight/scenarios/grid/1x1-500m/train/15-scenario/routes.rou.xml"/>
        <alternatives-output value="NUL"/>
    </output>

    <time>
        <begin value="0"/>
        <end value="900"/>
    </time>

    <report>
        <no-warnings value="true"/>
        <ignore-errors value="true"/>
        <no-step-log value="true"/>
    </report>

</configuration>
-->

<routes xmlns:xsi="http://www.w3.org/2001/XMLSchema-instance" xsi:noNamespaceSchemaLocation="http://sumo.dlr.de/xsd/routes_file.xsd">
    <vType id="passenger" vClass="passenger"/>
    <vehicle id="1" type="passenger" depart="0.35">
        <route edges="right0A0 right0A0.250.00 A0left0"/>
    </vehicle>
    <vehicle id="7" type="passenger" depart="2.50">
        <route edges="left0A0.250.00 A0top0"/>
    </vehicle>
    <vehicle id="8" type="passenger" depart="3.10">
        <route edges="top0A0.250.00 A0bottom0"/>
    </vehicle>
    <vehicle id="11" type="passenger" depart="4.05">
        <route edges="left0A0.250.00"/>
    </vehicle>
    <vehicle id="13" type="passenger" depart="5.40">
        <route edges="left0A0.250.00 A0top0"/>
    </vehicle>
    <vehicle id="15" type="passenger" depart="7.50">
        <route edges="top0A0 top0A0.250.00 A0right0"/>
    </vehicle>
    <vehicle id="16" type="passenger" depart="7.95">
        <route edges="right0A0.250.00"/>
    </vehicle>
    <vehicle id="20" type="passenger" depart="8.80">
        <route edges="bottom0A0 bottom0A0.250.00 A0right0"/>
    </vehicle>
    <vehicle id="22" type="passenger" depart="9.45">
        <route edges="bottom0A0 bottom0A0.250.00"/>
    </vehicle>
    <vehicle id="25" type="passenger" depart="10.90">
        <route edges="top0A0.250.00"/>
    </vehicle>
    <vehicle id="26" type="passenger" depart="11.05">
        <route edges="right0A0 right0A0.250.00 A0bottom0"/>
    </vehicle>
    <vehicle id="27" type="passenger" depart="11.15">
        <route edges="right0A0 right0A0.250.00 A0bottom0"/>
    </vehicle>
    <vehicle id="28" type="passenger" depart="11.15">
        <route edges="left0A0 left0A0.250.00 A0bottom0"/>
    </vehicle>
    <vehicle id="29" type="passenger" depart="11.95">
        <route edges="top0A0 top0A0.250.00 A0right0"/>
    </vehicle>
    <vehicle id="30" type="passenger" depart="12.30">
        <route edges="top0A0 top0A0.250.00 A0bottom0"/>
    </vehicle>
    <vehicle id="31" type="passenger" depart="12.75">
        <route edges="top0A0 top0A0.250.00"/>
    </vehicle>
    <vehicle id="32" type="passenger" depart="13.10">
        <route edges="right0A0 right0A0.250.00 A0left0"/>
    </vehicle>
    <vehicle id="33" type="passenger" depart="13.65">
        <route edges="left0A0 left0A0.250.00 A0right0"/>
    </vehicle>
    <vehicle id="34" type="passenger" depart="15.90">
        <route edges="left0A0 left0A0.250.00 A0bottom0"/>
    </vehicle>
    <vehicle id="36" type="passenger" depart="16.25">
        <route edges="right0A0.250.00 A0left0"/>
    </vehicle>
    <vehicle id="38" type="passenger" depart="16.80">
        <route edges="bottom0A0.250.00 A0right0"/>
    </vehicle>
    <vehicle id="41" type="passenger" depart="17.20">
        <route edges="left0A0 left0A0.250.00 A0top0"/>
    </vehicle>
    <vehicle id="42" type="passenger" depart="17.95">
        <route edges="top0A0.250.00 A0right0"/>
    </vehicle>
    <vehicle id="46" type="passenger" depart="19.40">
        <route edges="bottom0A0 bottom0A0.250.00 A0left0"/>
    </vehicle>
    <vehicle id="51" type="passenger" depart="23.00">
        <route edges="left0A0 left0A0.250.00 A0right0"/>
    </vehicle>
    <vehicle id="53" type="passenger" depart="23.35">
        <route edges="bottom0A0.250.00 A0top0"/>
    </vehicle>
    <vehicle id="55" type="passenger" depart="24.85">
        <route edges="top0A0 top0A0.250.00 A0right0"/>
    </vehicle>
    <vehicle id="62" type="passenger" depart="27.10">
        <route edges="left0A0 left0A0.250.00 A0right0"/>
    </vehicle>
    <vehicle id="64" type="passenger" depart="27.60">
        <route edges="left0A0 left0A0.250.00 A0bottom0"/>
    </vehicle>
    <vehicle id="66" type="passenger" depart="28.70">
        <route edges="right0A0 right0A0.250.00 A0top0"/>
    </vehicle>
    <vehicle id="68" type="passenger" depart="29.15">
        <route edges="left0A0.250.00 A0bottom0"/>
    </vehicle>
    <vehicle id="70" type="passenger" depart="29.70">
        <route edges="right0A0 right0A0.250.00"/>
    </vehicle>
    <vehicle id="72" type="passenger" depart="30.40">
        <route edges="top0A0 top0A0.250.00"/>
    </vehicle>
    <vehicle id="73" type="passenger" depart="30.55">
        <route edges="bottom0A0 bottom0A0.250.00 A0top0"/>
    </vehicle>
    <vehicle id="74" type="passenger" depart="30.70">
        <route edges="right0A0 right0A0.250.00 A0left0"/>
    </vehicle>
    <vehicle id="75" type="passenger" depart="31.40">
        <route edges="bottom0A0 bottom0A0.250.00 A0right0"/>
    </vehicle>
    <vehicle id="76" type="passenger" depart="31.65">
        <route edges="bottom0A0.250.00 A0right0"/>
    </vehicle>
    <vehicle id="77" type="passenger" depart="32.65">
        <route edges="right0A0 right0A0.250.00 A0bottom0"/>
    </vehicle>
    <vehicle id="80" type="passenger" depart="36.60">
        <route edges="bottom0A0 bottom0A0.250.00 A0left0"/>
    </vehicle>
    <vehicle id="83" type="passenger" depart="38.05">
        <route edges="left0A0.250.00 A0right0"/>
    </vehicle>
    <vehicle id="85" type="passenger" depart="38.15">
        <route edges="top0A0 top0A0.250.00 A0left0"/>
    </vehicle>
    <vehicle id="86" type="passenger" depart="39.85">
        <route edges="left0A0.250.00 A0bottom0"/>
    </vehicle>
    <vehicle id="87" type="passenger" depart="39.85">
        <route edges="bottom0A0 bottom0A0.250.00 A0right0"/>
    </vehicle>
    <vehicle id="88" type="passenger" depart="40.75">
        <route edges="left0A0 left0A0.250.00 A0top0"/>
    </vehicle>
    <vehicle id="92" type="passenger" depart="43.25">
        <route edges="top0A0.250.00 A0bottom0"/>
    </vehicle>
    <vehicle id="93" type="passenger" depart="44.60">
        <route edges="left0A0 left0A0.250.00 A0bottom0"/>
    </vehicle>
    <vehicle id="94" type="passenger" depart="45.05">
        <route edges="top0A0 top0A0.250.00"/>
    </vehicle>
    <vehicle id="95" type="passenger" depart="45.40">
        <route edges="left0A0.250.00 A0top0"/>
    </vehicle>
    <vehicle id="100" type="passenger" depart="49.45">
        <route edges="right0A0.250.00 A0left0"/>
    </vehicle>
    <vehicle id="101" type="passenger" depart="50.20">
        <route edges="right0A0 right0A0.250.00"/>
    </vehicle>
    <vehicle id="102" type="passenger" depart="50.25">
        <route edges="right0A0.250.00"/>
    </vehicle>
    <vehicle id="103" type="passenger" depart="50.35">
        <route edges="right0A0.250.00 A0bottom0"/>
    </vehicle>
    <vehicle id="109" type="passenger" depart="52.55">
        <route edges="left0A0 left0A0.250.00"/>
    </vehicle>
    <vehicle id="110" type="passenger" depart="54.20">
        <route edges="top0A0 top0A0.250.00 A0left0"/>
    </vehicle>
    <vehicle id="111" type="passenger" depart="54.60">
        <route edges="top0A0 top0A0.250.00 A0right0"/>
    </vehicle>
    <vehicle id="112" type="passenger" depart="54.85">
        <route edges="right0A0.250.00"/>
    </vehicle>
    <vehicle id="113" type="passenger" depart="54.90">
        <route edges="right0A0 right0A0.250.00 A0top0"/>
    </vehicle>
    <vehicle id="115" type="passenger" depart="55.30">
        <route edges="top0A0 top0A0.250.00 A0bottom0"/>
    </vehicle>
    <vehicle id="116" type="passenger" depart="55.55">
        <route edges="left0A0 left0A0.250.00 A0right0"/>
    </vehicle>
    <vehicle id="118" type="passenger" depart="56.05">
        <route edges="top0A0.250.00"/>
    </vehicle>
    <vehicle id="120" type="passenger" depart="56.90">
        <route edges="right0A0 right0A0.250.00 A0left0"/>
    </vehicle>
    <vehicle id="121" type="passenger" depart="57.00">
        <route edges="right0A0.250.00"/>
    </vehicle>
    <vehicle id="123" type="passenger" depart="57.50">
        <route edges="right0A0.250.00 A0bottom0"/>
    </vehicle>
    <vehicle id="128" type="passenger" depart="59.15">
        <route edges="left0A0 left0A0.250.00 A0right0"/>
    </vehicle>
    <vehicle id="129" type="passenger" depart="59.30">
        <route edges="left0A0 left0A0.250.00 A0bottom0"/>
    </vehicle>
    <vehicle id="130" type="passenger" depart="59.45">
        <route edges="top0A0.250.00 A0bottom0"/>
    </vehicle>
    <vehicle id="131" type="passenger" depart="59.45">
        <route edges="right0A0 right0A0.250.00 A0bottom0"/>
    </vehicle>
    <vehicle id="134" type="passenger" depart="60.80">
        <route edges="right0A0.250.00 A0left0"/>
    </vehicle>
    <vehicle id="139" type="passenger" depart="62.35">
        <route edges="right0A0 right0A0.250.00 A0left0"/>
    </vehicle>
    <vehicle id="145" type="passenger" depart="66.20">
        <route edges="bottom0A0 bottom0A0.250.00"/>
    </vehicle>
    <vehicle id="149" type="passenger" depart="67.80">
        <route edges="right0A0.250.00 A0bottom0"/>
    </vehicle>
    <vehicle id="150" type="passenger" depart="68.00">
        <route edges="top0A0.250.00 A0right0"/>
    </vehicle>
    <vehicle id="153" type="passenger" depart="69.05">
        <route edges="top0A0.250.00 A0bottom0"/>
    </vehicle>
    <vehicle id="156" type="passenger" depart="71.70">
        <route edges="bottom0A0.250.00"/>
    </vehicle>
    <vehicle id="157" type="passenger" depart="72.50">
        <route edges="left0A0 left0A0.250.00 A0bottom0"/>
    </vehicle>
    <vehicle id="159" type="passenger" depart="74.25">
        <route edges="right0A0.250.00 A0left0"/>
    </vehicle>
    <vehicle id="161" type="passenger" depart="75.40">
        <route edges="left0A0.250.00 A0bottom0"/>
    </vehicle>
    <vehicle id="162" type="passenger" depart="75.75">
        <route edges="bottom0A0 bottom0A0.250.00 A0top0"/>
    </vehicle>
    <vehicle id="165" type="passenger" depart="79.80">
        <route edges="right0A0 right0A0.250.00 A0bottom0"/>
    </vehicle>
    <vehicle id="167" type="passenger" depart="80.80">
        <route edges="right0A0 right0A0.250.00 A0bottom0"/>
    </vehicle>
    <vehicle id="169" type="passenger" depart="81.25">
        <route edges="top0A0.250.00 A0left0"/>
    </vehicle>
    <vehicle id="170" type="passenger" depart="82.00">
        <route edges="right0A0.250.00 A0left0"/>
    </vehicle>
    <vehicle id="172" type="passenger" depart="82.30">
        <route edges="left0A0.250.00"/>
    </vehicle>
    <vehicle id="173" type="passenger" depart="83.35">
        <route edges="right0A0 right0A0.250.00"/>
    </vehicle>
    <vehicle id="174" type="passenger" depart="83.55">
        <route edges="bottom0A0.250.00 A0right0"/>
    </vehicle>
    <vehicle id="181" type="passenger" depart="86.85">
        <route edges="left0A0.250.00 A0bottom0"/>
    </vehicle>
    <vehicle id="183" type="passenger" depart="87.45">
        <route edges="bottom0A0.250.00 A0top0"/>
    </vehicle>
    <vehicle id="185" type="passenger" depart="88.20">
        <route edges="bottom0A0.250.00 A0left0"/>
    </vehicle>
    <vehicle id="186" type="passenger" depart="89.10">
        <route edges="right0A0.250.00 A0top0"/>
    </vehicle>
    <vehicle id="187" type="passenger" depart="89.25">
        <route edges="right0A0.250.00 A0bottom0"/>
    </vehicle>
    <vehicle id="188" type="passenger" depart="89.35">
        <route edges="left0A0 left0A0.250.00 A0bottom0"/>
    </vehicle>
    <vehicle id="189" type="passenger" depart="89.45">
        <route edges="left0A0.250.00 A0bottom0"/>
    </vehicle>
    <vehicle id="191" type="passenger" depart="90.15">
        <route edges="left0A0 left0A0.250.00 A0top0"/>
    </vehicle>
    <vehicle id="194" type="passenger" depart="92.15">
        <route edges="left0A0 left0A0.250.00"/>
    </vehicle>
    <vehicle id="195" type="passenger" depart="92.35">
        <route edges="bottom0A0.250.00 A0right0"/>
    </vehicle>
    <vehicle id="201" type="passenger" depart="95.75">
        <route edges="top0A0 top0A0.250.00 A0bottom0"/>
    </vehicle>
    <vehicle id="203" type="passenger" depart="96.60">
        <route edges="bottom0A0.250.00 A0left0"/>
    </vehicle>
    <vehicle id="205" type="passenger" depart="97.10">
        <route edges="left0A0.250.00 A0top0"/>
    </vehicle>
    <vehicle id="206" type="passenger" depart="98.35">
        <route edges="right0A0 right0A0.250.00 A0bottom0"/>
    </vehicle>
    <vehicle id="207" type="passenger" depart="98.55">
        <route edges="bottom0A0.250.00 A0right0"/>
    </vehicle>
    <vehicle id="208" type="passenger" depart="99.10">
        <route edges="right0A0.250.00 A0bottom0"/>
    </vehicle>
    <vehicle id="211" type="passenger" depart="100.50">
        <route edges="right0A0.250.00 A0top0"/>
    </vehicle>
    <vehicle id="217" type="passenger" depart="103.25">
        <route edges="bottom0A0 bottom0A0.250.00 A0right0"/>
    </vehicle>
    <vehicle id="218" type="passenger" depart="103.55">
        <route edges="bottom0A0 bottom0A0.250.00 A0top0"/>
    </vehicle>
    <vehicle id="220" type="passenger" depart="105.40">
        <route edges="right0A0 right0A0.250.00 A0top0"/>
    </vehicle>
    <vehicle id="223" type="passenger" depart="106.25">
        <route edges="right0A0 right0A0.250.00 A0bottom0"/>
    </vehicle>
    <vehicle id="224" type="passenger" depart="106.45">
        <route edges="bottom0A0.250.00 A0right0"/>
    </vehicle>
    <vehicle id="227" type="passenger" depart="109.45">
        <route edges="bottom0A0.250.00 A0right0"/>
    </vehicle>
    <vehicle id="228" type="passenger" depart="110.05">
        <route edges="left0A0.250.00"/>
    </vehicle>
    <vehicle id="232" type="passenger" depart="111.35">
        <route edges="top0A0 top0A0.250.00"/>
    </vehicle>
    <vehicle id="234" type="passenger" depart="111.75">
        <route edges="right0A0 right0A0.250.00 A0left0"/>
    </vehicle>
    <vehicle id="239" type="passenger" depart="114.70">
        <route edges="left0A0.250.00 A0top0"/>
    </vehicle>
    <vehicle id="241" type="passenger" depart="115.20">
        <route edges="left0A0.250.00 A0bottom0"/>
    </vehicle>
    <vehicle id="246" type="passenger" depart="115.95">
        <route edges="bottom0A0 bottom0A0.250.00 A0left0"/>
    </vehicle>
    <vehicle id="247" type="passenger" depart="116.05">
        <route edges="right0A0.250.00 A0bottom0"/>
    </vehicle>
    <vehicle id="248" type="passenger" depart="116.75">
        <route edges="left0A0.250.00"/>
    </vehicle>
    <vehicle id="249" type="passenger" depart="118.50">
        <route edges="bottom0A0 bottom0A0.250.00"/>
    </vehicle>
    <vehicle id="250" type="passenger" depart="118.60">
        <route edges="right0A0 right0A0.250.00 A0bottom0"/>
    </vehicle>
    <vehicle id="251" type="passenger" depart="119.50">
        <route edges="left0A0.250.00 A0bottom0"/>
    </vehicle>
    <vehicle id="255" type="passenger" depart="119.70">
        <route edges="bottom0A0 bottom0A0.250.00 A0left0"/>
    </vehicle>
    <vehicle id="256" type="passenger" depart="120.10">
        <route edges="left0A0 left0A0.250.00 A0right0"/>
    </vehicle>
    <vehicle id="260" type="passenger" depart="121.55">
        <route edges="right0A0 right0A0.250.00 A0top0"/>
    </vehicle>
    <vehicle id="261" type="passenger" depart="121.80">
        <route edges="top0A0.250.00 A0left0"/>
    </vehicle>
    <vehicle id="262" type="passenger" depart="122.15">
        <route edges="right0A0 right0A0.250.00 A0bottom0"/>
    </vehicle>
    <vehicle id="264" type="passenger" depart="123.20">
        <route edges="left0A0.250.00 A0top0"/>
    </vehicle>
    <vehicle id="269" type="passenger" depart="125.25">
        <route edges="right0A0 right0A0.250.00"/>
    </vehicle>
    <vehicle id="272" type="passenger" depart="126.30">
        <route edges="bottom0A0 bottom0A0.250.00 A0right0"/>
    </vehicle>
    <vehicle id="274" type="passenger" depart="127.50">
        <route edges="right0A0 right0A0.250.00"/>
    </vehicle>
    <vehicle id="275" type="passenger" depart="127.65">
        <route edges="left0A0.250.00 A0top0"/>
    </vehicle>
    <vehicle id="276" type="passenger" depart="127.80">
        <route edges="bottom0A0 bottom0A0.250.00"/>
    </vehicle>
    <vehicle id="277" type="passenger" depart="128.00">
        <route edges="bottom0A0.250.00 A0right0"/>
    </vehicle>
    <vehicle id="279" type="passenger" depart="128.80">
        <route edges="bottom0A0.250.00 A0right0"/>
    </vehicle>
    <vehicle id="280" type="passenger" depart="129.25">
        <route edges="bottom0A0.250.00"/>
    </vehicle>
    <vehicle id="281" type="passenger" depart="130.45">
        <route edges="left0A0.250.00"/>
    </vehicle>
    <vehicle id="287" type="passenger" depart="132.60">
        <route edges="top0A0.250.00 A0left0"/>
    </vehicle>
    <vehicle id="288" type="passenger" depart="133.35">
        <route edges="top0A0 top0A0.250.00 A0left0"/>
    </vehicle>
    <vehicle id="292" type="passenger" depart="135.95">
        <route edges="top0A0 top0A0.250.00 A0right0"/>
    </vehicle>
    <vehicle id="297" type="passenger" depart="137.45">
        <route edges="bottom0A0 bottom0A0.250.00 A0top0"/>
    </vehicle>
    <vehicle id="298" type="passenger" depart="137.90">
        <route edges="bottom0A0 bottom0A0.250.00 A0top0"/>
    </vehicle>
    <vehicle id="303" type="passenger" depart="138.55">
        <route edges="bottom0A0 bottom0A0.250.00 A0top0"/>
    </vehicle>
    <vehicle id="304" type="passenger" depart="138.65">
        <route edges="bottom0A0.250.00 A0top0"/>
    </vehicle>
    <vehicle id="305" type="passenger" depart="141.35">
        <route edges="right0A0.250.00 A0left0"/>
    </vehicle>
    <vehicle id="306" type="passenger" depart="142.95">
        <route edges="top0A0.250.00"/>
    </vehicle>
    <vehicle id="308" type="passenger" depart="143.45">
        <route edges="top0A0 top0A0.250.00 A0left0"/>
    </vehicle>
    <vehicle id="311" type="passenger" depart="143.90">
        <route edges="right0A0.250.00 A0top0"/>
    </vehicle>
    <vehicle id="312" type="passenger" depart="144.30">
        <route edges="top0A0.250.00 A0right0"/>
    </vehicle>
    <vehicle id="318" type="passenger" depart="145.40">
        <route edges="right0A0 right0A0.250.00"/>
    </vehicle>
    <vehicle id="319" type="passenger" depart="146.00">
        <route edges="left0A0.250.00 A0right0"/>
    </vehicle>
    <vehicle id="321" type="passenger" depart="147.00">
        <route edges="right0A0 right0A0.250.00 A0top0"/>
    </vehicle>
    <vehicle id="322" type="passenger" depart="147.20">
        <route edges="bottom0A0 bottom0A0.250.00 A0top0"/>
    </vehicle>
    <vehicle id="323" type="passenger" depart="147.20">
        <route edges="left0A0 left0A0.250.00 A0top0"/>
    </vehicle>
    <vehicle id="325" type="passenger" depart="147.60">
        <route edges="top0A0 top0A0.250.00 A0left0"/>
    </vehicle>
    <vehicle id="327" type="passenger" depart="148.40">
        <route edges="right0A0.250.00"/>
    </vehicle>
    <vehicle id="329" type="passenger" depart="149.40">
        <route edges="bottom0A0 bottom0A0.250.00 A0right0"/>
    </vehicle>
    <vehicle id="331" type="passenger" depart="149.65">
        <route edges="left0A0.250.00 A0top0"/>
    </vehicle>
    <vehicle id="335" type="passenger" depart="152.30">
        <route edges="bottom0A0.250.00 A0top0"/>
    </vehicle>
    <vehicle id="341" type="passenger" depart="153.80">
        <route edges="bottom0A0 bottom0A0.250.00 A0right0"/>
    </vehicle>
    <vehicle id="342" type="passenger" depart="155.25">
        <route edges="left0A0.250.00 A0right0"/>
    </vehicle>
    <vehicle id="343" type="passenger" depart="155.75">
        <route edges="left0A0 left0A0.250.00 A0top0"/>
    </vehicle>
    <vehicle id="344" type="passenger" depart="156.20">
        <route edges="right0A0.250.00 A0bottom0"/>
    </vehicle>
    <vehicle id="345" type="passenger" depart="156.30">
        <route edges="top0A0 top0A0.250.00 A0right0"/>
    </vehicle>
    <vehicle id="346" type="passenger" depart="157.00">
        <route edges="bottom0A0 bottom0A0.250.00 A0top0"/>
    </vehicle>
    <vehicle id="347" type="passenger" depart="157.20">
        <route edges="top0A0.250.00 A0right0"/>
    </vehicle>
    <vehicle id="348" type="passenger" depart="157.30">
        <route edges="top0A0.250.00 A0right0"/>
    </vehicle>
    <vehicle id="351" type="passenger" depart="158.05">
        <route edges="bottom0A0.250.00 A0right0"/>
    </vehicle>
    <vehicle id="352" type="passenger" depart="158.60">
        <route edges="left0A0 left0A0.250.00 A0bottom0"/>
    </vehicle>
    <vehicle id="356" type="passenger" depart="160.20">
        <route edges="top0A0.250.00 A0right0"/>
    </vehicle>
    <vehicle id="359" type="passenger" depart="161.00">
        <route edges="left0A0.250.00 A0bottom0"/>
    </vehicle>
    <vehicle id="360" type="passenger" depart="161.20">
        <route edges="top0A0.250.00 A0bottom0"/>
    </vehicle>
    <vehicle id="361" type="passenger" depart="161.50">
        <route edges="bottom0A0.250.00 A0left0"/>
    </vehicle>
    <vehicle id="362" type="passenger" depart="161.55">
        <route edges="right0A0 right0A0.250.00 A0left0"/>
    </vehicle>
    <vehicle id="363" type="passenger" depart="162.45">
        <route edges="right0A0 right0A0.250.00 A0left0"/>
    </vehicle>
    <vehicle id="364" type="passenger" depart="162.55">
        <route edges="bottom0A0 bottom0A0.250.00"/>
    </vehicle>
    <vehicle id="365" type="passenger" depart="163.75">
        <route edges="top0A0.250.00"/>
    </vehicle>
    <vehicle id="368" type="passenger" depart="164.85">
        <route edges="right0A0 right0A0.250.00"/>
    </vehicle>
    <vehicle id="373" type="passenger" depart="169.05">
        <route edges="left0A0.250.00 A0top0"/>
    </vehicle>
    <vehicle id="377" type="passenger" depart="171.20">
        <route edges="bottom0A0 bottom0A0.250.00 A0left0"/>
    </vehicle>
    <vehicle id="378" type="passenger" depart="171.35">
        <route edges="top0A0 top0A0.250.00 A0bottom0"/>
    </vehicle>
    <vehicle id="379" type="passenger" depart="171.60">
        <route edges="right0A0 right0A0.250.00 A0top0"/>
    </vehicle>
    <vehicle id="380" type="passenger" depart="172.15">
        <route edges="top0A0 top0A0.250.00 A0left0"/>
    </vehicle>
    <vehicle id="386" type="passenger" depart="175.20">
        <route edges="left0A0 left0A0.250.00 A0right0"/>
    </vehicle>
    <vehicle id="388" type="passenger" depart="175.70">
        <route edges="top0A0 top0A0.250.00"/>
    </vehicle>
    <vehicle id="389" type="passenger" depart="175.75">
        <route edges="top0A0.250.00 A0right0"/>
    </vehicle>
    <vehicle id="390" type="passenger" depart="177.95">
        <route edges="bottom0A0 bottom0A0.250.00 A0top0"/>
    </vehicle>
    <vehicle id="392" type="passenger" depart="179.15">
        <route edges="left0A0 left0A0.250.00 A0top0"/>
    </vehicle>
    <vehicle id="395" type="passenger" depart="180.60">
        <route edges="right0A0 right0A0.250.00 A0top0"/>
    </vehicle>
    <vehicle id="396" type="passenger" depart="182.85">
        <route edges="right0A0 right0A0.250.00 A0left0"/>
    </vehicle>
    <vehicle id="397" type="passenger" depart="182.90">
        <route edges="left0A0 left0A0.250.00 A0bottom0"/>
    </vehicle>
    <vehicle id="399" type="passenger" depart="183.90">
        <route edges="left0A0 left0A0.250.00"/>
    </vehicle>
    <vehicle id="400" type="passenger" depart="184.75">
        <route edges="top0A0.250.00 A0bottom0"/>
    </vehicle>
    <vehicle id="404" type="passenger" depart="187.00">
        <route edges="left0A0.250.00"/>
    </vehicle>
    <vehicle id="405" type="passenger" depart="187.20">
        <route edges="bottom0A0.250.00 A0left0"/>
    </vehicle>
    <vehicle id="408" type="passenger" depart="187.70">
        <route edges="right0A0.250.00 A0top0"/>
    </vehicle>
    <vehicle id="411" type="passenger" depart="188.60">
        <route edges="right0A0 right0A0.250.00 A0top0"/>
    </vehicle>
    <vehicle id="413" type="passenger" depart="189.85">
        <route edges="right0A0 right0A0.250.00"/>
    </vehicle>
    <vehicle id="415" type="passenger" depart="190.30">
        <route edges="bottom0A0.250.00"/>
    </vehicle>
    <vehicle id="417" type="passenger" depart="190.85">
        <route edges="left0A0 left0A0.250.00 A0bottom0"/>
    </vehicle>
    <vehicle id="418" type="passenger" depart="191.35">
        <route edges="bottom0A0.250.00 A0left0"/>
    </vehicle>
    <vehicle id="420" type="passenger" depart="192.15">
        <route edges="right0A0 right0A0.250.00 A0left0"/>
    </vehicle>
    <vehicle id="422" type="passenger" depart="192.30">
        <route edges="bottom0A0.250.00 A0left0"/>
    </vehicle>
    <vehicle id="424" type="passenger" depart="192.90">
        <route edges="top0A0.250.00 A0bottom0"/>
    </vehicle>
    <vehicle id="426" type="passenger" depart="193.15">
        <route edges="left0A0.250.00"/>
    </vehicle>
    <vehicle id="430" type="passenger" depart="194.15">
        <route edges="left0A0.250.00 A0bottom0"/>
    </vehicle>
    <vehicle id="431" type="passenger" depart="194.30">
        <route edges="right0A0.250.00 A0left0"/>
    </vehicle>
    <vehicle id="432" type="passenger" depart="194.75">
        <route edges="left0A0 left0A0.250.00 A0bottom0"/>
    </vehicle>
    <vehicle id="434" type="passenger" depart="195.35">
        <route edges="right0A0 right0A0.250.00"/>
    </vehicle>
    <vehicle id="436" type="passenger" depart="196.15">
        <route edges="top0A0 top0A0.250.00 A0left0"/>
    </vehicle>
    <vehicle id="437" type="passenger" depart="196.50">
        <route edges="right0A0 right0A0.250.00 A0top0"/>
    </vehicle>
    <vehicle id="439" type="passenger" depart="196.75">
        <route edges="left0A0 left0A0.250.00 A0bottom0"/>
    </vehicle>
    <vehicle id="440" type="passenger" depart="196.95">
        <route edges="bottom0A0.250.00 A0right0"/>
    </vehicle>
    <vehicle id="441" type="passenger" depart="197.05">
        <route edges="top0A0.250.00 A0bottom0"/>
    </vehicle>
    <vehicle id="443" type="passenger" depart="199.65">
        <route edges="top0A0 top0A0.250.00 A0right0"/>
    </vehicle>
    <vehicle id="444" type="passenger" depart="200.80">
        <route edges="bottom0A0 bottom0A0.250.00 A0right0"/>
    </vehicle>
    <vehicle id="445" type="passenger" depart="201.00">
        <route edges="bottom0A0 bottom0A0.250.00"/>
    </vehicle>
    <vehicle id="447" type="passenger" depart="203.55">
        <route edges="right0A0 right0A0.250.00 A0top0"/>
    </vehicle>
    <vehicle id="450" type="passenger" depart="204.00">
        <route edges="right0A0.250.00 A0top0"/>
    </vehicle>
    <vehicle id="452" type="passenger" depart="204.30">
        <route edges="right0A0.250.00 A0bottom0"/>
    </vehicle>
    <vehicle id="453" type="passenger" depart="204.55">
        <route edges="top0A0.250.00 A0left0"/>
    </vehicle>
    <vehicle id="455" type="passenger" depart="204.95">
        <route edges="bottom0A0 bottom0A0.250.00 A0top0"/>
    </vehicle>
    <vehicle id="458" type="passenger" depart="205.90">
        <route edges="bottom0A0 bottom0A0.250.00 A0top0"/>
    </vehicle>
    <vehicle id="459" type="passenger" depart="207.20">
        <route edges="right0A0 right0A0.250.00 A0top0"/>
    </vehicle>
    <vehicle id="463" type="passenger" depart="208.65">
        <route edges="top0A0 top0A0.250.00 A0bottom0"/>
    </vehicle>
    <vehicle id="465" type="passenger" depart="209.85">
        <route edges="top0A0.250.00"/>
    </vehicle>
    <vehicle id="466" type="passenger" depart="210.10">
        <route edges="top0A0.250.00 A0bottom0"/>
    </vehicle>
    <vehicle id="469" type="passenger" depart="211.65">
        <route edges="top0A0 top0A0.250.00"/>
    </vehicle>
    <vehicle id="470" type="passenger" depart="211.85">
        <route edges="right0A0 right0A0.250.00 A0bottom0"/>
    </vehicle>
    <vehicle id="471" type="passenger" depart="213.25">
        <route edges="right0A0 right0A0.250.00 A0left0"/>
    </vehicle>
    <vehicle id="473" type="passenger" depart="213.85">
        <route edges="bottom0A0 bottom0A0.250.00 A0left0"/>
    </vehicle>
    <vehicle id="474" type="passenger" depart="214.25">
        <route edges="bottom0A0.250.00 A0right0"/>
    </vehicle>
    <vehicle id="477" type="passenger" depart="217.90">