<?xml version="1.0" encoding="UTF-8"?>

<!-- generated on 2023-04-26 16:57:01.145267 by randomTrips.py UNKNOWN
<configuration>
    <begin value="0"/>
    <end value="900"/>
    <insertion-rate value="8000.0"/>
    <net-file value="/home/franky3er/Documents/code/HieraGLight/scenarios/grid/1x1-500m/train/66-scenario/network.net.xml"/>
    <random value="True"/>
    <random-depart value="True"/>
    <route-file value="/home/franky3er/Documents/code/HieraGLight/scenarios/grid/1x1-500m/train/66-scenario/routes.rou.xml"/>
    <seed value="66"/>
    <output-trip-file value="/home/franky3er/Documents/code/HieraGLight/scenarios/grid/1x1-500m/train/66-scenario/trips.trips.xml"/>
    <vehicle-class value="passenger"/>
</configuration>
-->

<!-- generated on 2023-04-26 16:57:01 by Eclipse SUMO duarouter Version 1.16.0
<configuration xmlns:xsi="http://www.w3.org/2001/XMLSchema-instance" xsi:noNamespaceSchemaLocation="http://sumo.dlr.de/xsd/duarouterConfiguration.xsd">

    <input>
        <net-file value="/home/franky3er/Documents/code/HieraGLight/scenarios/grid/1x1-500m/train/66-scenario/network.net.xml"/>
        <route-files value="/home/franky3er/Documents/code/HieraGLight/scenarios/grid/1x1-500m/train/66-scenario/trips.trips.xml"/>
    </input>

    <output>
        <output-file value="/home/franky3er/Documents/code/HieraGLight/scenarios/grid/1x1-500m/train/66-scenario/routes.rou.xml"/>
        <alternatives-output value="NUL"/>
    </output>

    <time>
        <begin value="0"/>
        <end value="900"/>
    </time>

    <report>
        <no-warnings value="true"/>
        <ignore-errors value="true"/>
        <no-step-log value="true"/>
    </report>

</configuration>
-->

<routes xmlns:xsi="http://www.w3.org/2001/XMLSchema-instance" xsi:noNamespaceSchemaLocation="http://sumo.dlr.de/xsd/routes_file.xsd">
    <vType id="passenger" vClass="passenger"/>
    <vehicle id="0" type="passenger" depart="0.30">
        <route edges="right0A0 right0A0.250.00"/>
    </vehicle>
    <vehicle id="3" type="passenger" depart="2.05">
        <route edges="top0A0.250.00"/>
    </vehicle>
    <vehicle id="4" type="passenger" depart="2.90">
        <route edges="top0A0.250.00 A0left0"/>
    </vehicle>
    <vehicle id="7" type="passenger" depart="4.25">
        <route edges="top0A0 top0A0.250.00 A0right0"/>
    </vehicle>
    <vehicle id="8" type="passenger" depart="4.85">
        <route edges="top0A0.250.00 A0right0"/>
    </vehicle>
    <vehicle id="10" type="passenger" depart="5.45">
        <route edges="left0A0.250.00"/>
    </vehicle>
    <vehicle id="11" type="passenger" depart="7.25">
        <route edges="bottom0A0 bottom0A0.250.00 A0left0"/>
    </vehicle>
    <vehicle id="12" type="passenger" depart="7.90">
        <route edges="top0A0 top0A0.250.00"/>
    </vehicle>
    <vehicle id="13" type="passenger" depart="8.70">
        <route edges="left0A0.250.00 A0top0"/>
    </vehicle>
    <vehicle id="15" type="passenger" depart="9.05">
        <route edges="left0A0.250.00"/>
    </vehicle>
    <vehicle id="16" type="passenger" depart="9.55">
        <route edges="bottom0A0.250.00 A0top0"/>
    </vehicle>
    <vehicle id="22" type="passenger" depart="10.50">
        <route edges="right0A0.250.00 A0bottom0"/>
    </vehicle>
    <vehicle id="23" type="passenger" depart="10.70">
        <route edges="right0A0 right0A0.250.00 A0top0"/>
    </vehicle>
    <vehicle id="25" type="passenger" depart="11.45">
        <route edges="top0A0 top0A0.250.00 A0right0"/>
    </vehicle>
    <vehicle id="30" type="passenger" depart="13.80">
        <route edges="top0A0.250.00 A0bottom0"/>
    </vehicle>
    <vehicle id="31" type="passenger" depart="14.95">
        <route edges="bottom0A0.250.00 A0left0"/>
    </vehicle>
    <vehicle id="32" type="passenger" depart="15.05">
        <route edges="top0A0.250.00 A0bottom0"/>
    </vehicle>
    <vehicle id="33" type="passenger" depart="16.20">
        <route edges="right0A0 right0A0.250.00"/>
    </vehicle>
    <vehicle id="36" type="passenger" depart="18.05">
        <route edges="left0A0 left0A0.250.00"/>
    </vehicle>
    <vehicle id="37" type="passenger" depart="18.10">
        <route edges="bottom0A0 bottom0A0.250.00 A0right0"/>
    </vehicle>
    <vehicle id="43" type="passenger" depart="20.45">
        <route edges="right0A0.250.00 A0left0"/>
    </vehicle>
    <vehicle id="45" type="passenger" depart="21.00">
        <route edges="bottom0A0 bottom0A0.250.00 A0right0"/>
    </vehicle>
    <vehicle id="46" type="passenger" depart="22.90">
        <route edges="top0A0 top0A0.250.00 A0right0"/>
    </vehicle>
    <vehicle id="47" type="passenger" depart="23.40">
        <route edges="right0A0.250.00 A0bottom0"/>
    </vehicle>
    <vehicle id="48" type="passenger" depart="23.50">
        <route edges="left0A0.250.00 A0bottom0"/>
    </vehicle>
    <vehicle id="49" type="passenger" depart="23.90">
        <route edges="top0A0.250.00 A0left0"/>
    </vehicle>
    <vehicle id="51" type="passenger" depart="24.00">
        <route edges="right0A0 right0A0.250.00"/>
    </vehicle>
    <vehicle id="54" type="passenger" depart="24.05">
        <route edges="bottom0A0 bottom0A0.250.00 A0top0"/>
    </vehicle>
    <vehicle id="57" type="passenger" depart="28.00">
        <route edges="right0A0.250.00 A0left0"/>
    </vehicle>
    <vehicle id="58" type="passenger" depart="28.75">
        <route edges="bottom0A0.250.00"/>
    </vehicle>
    <vehicle id="60" type="passenger" depart="29.05">
        <route edges="bottom0A0 bottom0A0.250.00 A0left0"/>
    </vehicle>
    <vehicle id="63" type="passenger" depart="30.70">
        <route edges="left0A0.250.00 A0bottom0"/>
    </vehicle>
    <vehicle id="64" type="passenger" depart="30.75">
        <route edges="bottom0A0 bottom0A0.250.00"/>
    </vehicle>
    <vehicle id="65" type="passenger" depart="31.65">
        <route edges="bottom0A0.250.00 A0right0"/>
    </vehicle>
    <vehicle id="67" type="passenger" depart="31.85">
        <route edges="top0A0 top0A0.250.00 A0right0"/>
    </vehicle>
    <vehicle id="69" type="passenger" depart="33.40">
        <route edges="bottom0A0.250.00"/>
    </vehicle>
    <vehicle id="70" type="passenger" depart="33.50">
        <route edges="top0A0 top0A0.250.00 A0right0"/>
    </vehicle>
    <vehicle id="74" type="passenger" depart="34.85">
        <route edges="right0A0.250.00"/>
    </vehicle>
    <vehicle id="75" type="passenger" depart="35.15">
        <route edges="left0A0 left0A0.250.00 A0right0"/>
    </vehicle>
    <vehicle id="77" type="passenger" depart="36.35">
        <route edges="top0A0.250.00 A0left0"/>
    </vehicle>
    <vehicle id="78" type="passenger" depart="36.50">
        <route edges="bottom0A0.250.00 A0top0"/>
    </vehicle>
    <vehicle id="79" type="passenger" depart="36.75">
        <route edges="bottom0A0 bottom0A0.250.00 A0top0"/>
    </vehicle>
    <vehicle id="80" type="passenger" depart="37.60">
        <route edges="left0A0.250.00 A0top0"/>
    </vehicle>
    <vehicle id="81" type="passenger" depart="38.00">
        <route edges="left0A0 left0A0.250.00 A0bottom0"/>
    </vehicle>
    <vehicle id="82" type="passenger" depart="38.20">
        <route edges="bottom0A0.250.00 A0left0"/>
    </vehicle>
    <vehicle id="83" type="passenger" depart="39.00">
        <route edges="top0A0.250.00 A0bottom0"/>
    </vehicle>
    <vehicle id="84" type="passenger" depart="39.50">
        <route edges="right0A0 right0A0.250.00 A0top0"/>
    </vehicle>
    <vehicle id="87" type="passenger" depart="41.60">
        <route edges="top0A0.250.00 A0bottom0"/>
    </vehicle>
    <vehicle id="88" type="passenger" depart="42.00">
        <route edges="right0A0 right0A0.250.00 A0left0"/>
    </vehicle>
    <vehicle id="89" type="passenger" depart="42.60">
        <route edges="left0A0.250.00 A0top0"/>
    </vehicle>
    <vehicle id="90" type="passenger" depart="43.80">
        <route edges="right0A0 right0A0.250.00"/>
    </vehicle>
    <vehicle id="91" type="passenger" depart="44.40">
        <route edges="top0A0 top0A0.250.00 A0bottom0"/>
    </vehicle>
    <vehicle id="92" type="passenger" depart="44.60">
        <route edges="left0A0.250.00 A0top0"/>
    </vehicle>
    <vehicle id="93" type="passenger" depart="44.75">
        <route edges="right0A0 right0A0.250.00 A0bottom0"/>
    </vehicle>
    <vehicle id="94" type="passenger" depart="45.10">
        <route edges="top0A0.250.00"/>
    </vehicle>
    <vehicle id="96" type="passenger" depart="45.95">
        <route edges="bottom0A0 bottom0A0.250.00"/>
    </vehicle>
    <vehicle id="97" type="passenger" depart="47.90">
        <route edges="top0A0.250.00"/>
    </vehicle>
    <vehicle id="98" type="passenger" depart="48.30">
        <route edges="top0A0 top0A0.250.00 A0right0"/>
    </vehicle>
    <vehicle id="99" type="passenger" depart="49.25">
        <route edges="left0A0.250.00 A0bottom0"/>
    </vehicle>
    <vehicle id="103" type="passenger" depart="50.35">
        <route edges="top0A0.250.00 A0bottom0"/>
    </vehicle>
    <vehicle id="105" type="passenger" depart="50.80">
        <route edges="top0A0.250.00 A0right0"/>
    </vehicle>
    <vehicle id="107" type="passenger" depart="51.65">
        <route edges="right0A0 right0A0.250.00"/>
    </vehicle>
    <vehicle id="109" type="passenger" depart="53.50">
        <route edges="right0A0.250.00 A0top0"/>
    </vehicle>
    <vehicle id="112" type="passenger" depart="53.80">
        <route edges="bottom0A0.250.00 A0right0"/>
    </vehicle>
    <vehicle id="115" type="passenger" depart="54.75">
        <route edges="bottom0A0 bottom0A0.250.00"/>
    </vehicle>
    <vehicle id="117" type="passenger" depart="55.05">
        <route edges="right0A0 right0A0.250.00 A0bottom0"/>
    </vehicle>
    <vehicle id="118" type="passenger" depart="55.70">
        <route edges="top0A0 top0A0.250.00"/>
    </vehicle>
    <vehicle id="121" type="passenger" depart="56.75">
        <route edges="right0A0.250.00 A0bottom0"/>
    </vehicle>
    <vehicle id="122" type="passenger" depart="57.05">
        <route edges="top0A0 top0A0.250.00 A0left0"/>
    </vehicle>
    <vehicle id="123" type="passenger" depart="57.30">
        <route edges="top0A0.250.00 A0bottom0"/>
    </vehicle>
    <vehicle id="129" type="passenger" depart="60.00">
        <route edges="left0A0 left0A0.250.00 A0top0"/>
    </vehicle>
    <vehicle id="132" type="passenger" depart="62.80">
        <route edges="left0A0.250.00 A0top0"/>
    </vehicle>
    <vehicle id="135" type="passenger" depart="63.95">
        <route edges="bottom0A0.250.00 A0top0"/>
    </vehicle>
    <vehicle id="137" type="passenger" depart="64.65">
        <route edges="left0A0 left0A0.250.00 A0bottom0"/>
    </vehicle>
    <vehicle id="139" type="passenger" depart="67.15">
        <route edges="bottom0A0.250.00"/>
    </vehicle>
    <vehicle id="141" type="passenger" depart="67.95">
        <route edges="bottom0A0 bottom0A0.250.00 A0top0"/>
    </vehicle>
    <vehicle id="145" type="passenger" depart="69.05">
        <route edges="top0A0.250.00 A0left0"/>
    </vehicle>
    <vehicle id="146" type="passenger" depart="69.25">
        <route edges="right0A0 right0A0.250.00"/>
    </vehicle>
    <vehicle id="149" type="passenger" depart="71.10">
        <route edges="right0A0 right0A0.250.00 A0left0"/>
    </vehicle>
    <vehicle id="153" type="passenger" depart="73.20">
        <route edges="bottom0A0 bottom0A0.250.00 A0left0"/>
    </vehicle>
    <vehicle id="154" type="passenger" depart="73.75">
        <route edges="top0A0 top0A0.250.00 A0left0"/>
    </vehicle>
    <vehicle id="156" type="passenger" depart="74.10">
        <route edges="left0A0.250.00 A0top0"/>
    </vehicle>
    <vehicle id="161" type="passenger" depart="76.35">
        <route edges="left0A0 left0A0.250.00 A0top0"/>
    </vehicle>
    <vehicle id="164" type="passenger" depart="77.15">
        <route edges="bottom0A0 bottom0A0.250.00 A0right0"/>
    </vehicle>
    <vehicle id="165" type="passenger" depart="77.60">
        <route edges="right0A0.250.00 A0left0"/>
    </vehicle>
    <vehicle id="169" type="passenger" depart="79.75">
        <route edges="bottom0A0 bottom0A0.250.00"/>
    </vehicle>
    <vehicle id="170" type="passenger" depart="80.25">
        <route edges="bottom0A0 bottom0A0.250.00 A0left0"/>
    </vehicle>
    <vehicle id="171" type="passenger" depart="80.35">
        <route edges="left0A0.250.00 A0right0"/>
    </vehicle>
    <vehicle id="174" type="passenger" depart="82.00">
        <route edges="right0A0 right0A0.250.00 A0bottom0"/>
    </vehicle>
    <vehicle id="176" type="passenger" depart="82.60">
        <route edges="top0A0.250.00 A0left0"/>
    </vehicle>
    <vehicle id="177" type="passenger" depart="82.65">
        <route edges="left0A0 left0A0.250.00"/>
    </vehicle>
    <vehicle id="178" type="passenger" depart="83.30">
        <route edges="bottom0A0 bottom0A0.250.00"/>
    </vehicle>
    <vehicle id="179" type="passenger" depart="84.35">
        <route edges="right0A0 right0A0.250.00 A0bottom0"/>
    </vehicle>
    <vehicle id="180" type="passenger" depart="84.35">
        <route edges="bottom0A0 bottom0A0.250.00 A0left0"/>
    </vehicle>
    <vehicle id="181" type="passenger" depart="84.55">
        <route edges="left0A0 left0A0.250.00 A0top0"/>
    </vehicle>
    <vehicle id="182" type="passenger" depart="84.55">
        <route edges="top0A0.250.00 A0bottom0"/>
    </vehicle>
    <vehicle id="185" type="passenger" depart="85.70">
        <route edges="bottom0A0.250.00 A0top0"/>
    </vehicle>
    <vehicle id="186" type="passenger" depart="85.90">
        <route edges="right0A0.250.00"/>
    </vehicle>
    <vehicle id="187" type="passenger" depart="86.75">
        <route edges="top0A0.250.00"/>
    </vehicle>
    <vehicle id="188" type="passenger" depart="87.00">
        <route edges="left0A0.250.00 A0right0"/>
    </vehicle>
    <vehicle id="193" type="passenger" depart="89.10">
        <route edges="bottom0A0 bottom0A0.250.00"/>
    </vehicle>
    <vehicle id="196" type="passenger" depart="89.65">
        <route edges="top0A0 top0A0.250.00 A0bottom0"/>
    </vehicle>
    <vehicle id="201" type="passenger" depart="91.45">
        <route edges="top0A0.250.00 A0left0"/>
    </vehicle>
    <vehicle id="202" type="passenger" depart="91.60">
        <route edges="left0A0.250.00"/>
    </vehicle>
    <vehicle id="203" type="passenger" depart="93.10">
        <route edges="right0A0.250.00"/>
    </vehicle>
    <vehicle id="204" type="passenger" depart="93.20">
        <route edges="bottom0A0 bottom0A0.250.00"/>
    </vehicle>
    <vehicle id="206" type="passenger" depart="93.80">
        <route edges="top0A0.250.00 A0left0"/>
    </vehicle>
    <vehicle id="207" type="passenger" depart="94.05">
        <route edges="left0A0 left0A0.250.00"/>
    </vehicle>
    <vehicle id="210" type="passenger" depart="95.00">
        <route edges="top0A0 top0A0.250.00 A0right0"/>
    </vehicle>
    <vehicle id="216" type="passenger" depart="98.60">
        <route edges="left0A0.250.00 A0right0"/>
    </vehicle>
    <vehicle id="219" type="passenger" depart="100.25">
        <route edges="left0A0 left0A0.250.00 A0right0"/>
    </vehicle>
    <vehicle id="221" type="passenger" depart="101.80">
        <route edges="top0A0.250.00 A0left0"/>
    </vehicle>
    <vehicle id="222" type="passenger" depart="103.50">
        <route edges="bottom0A0.250.00 A0right0"/>
    </vehicle>
    <vehicle id="223" type="passenger" depart="104.70">
        <route edges="left0A0.250.00 A0top0"/>
    </vehicle>
    <vehicle id="225" type="passenger" depart="105.80">
        <route edges="top0A0.250.00 A0bottom0"/>
    </vehicle>
    <vehicle id="227" type="passenger" depart="106.55">
        <route edges="bottom0A0 bottom0A0.250.00 A0top0"/>
    </vehicle>
    <vehicle id="228" type="passenger" depart="107.10">
        <route edges="right0A0.250.00 A0bottom0"/>
    </vehicle>
    <vehicle id="231" type="passenger" depart="108.00">
        <route edges="top0A0.250.00"/>
    </vehicle>
    <vehicle id="233" type="passenger" depart="108.60">
        <route edges="right0A0.250.00"/>
    </vehicle>
    <vehicle id="234" type="passenger" depart="109.50">
        <route edges="top0A0 top0A0.250.00 A0bottom0"/>
    </vehicle>
    <vehicle id="236" type="passenger" depart="111.20">
        <route edges="top0A0.250.00"/>
    </vehicle>
    <vehicle id="237" type="passenger" depart="111.65">
        <route edges="left0A0.250.00 A0right0"/>
    </vehicle>
    <vehicle id="238" type="passenger" depart="111.65">
        <route edges="right0A0.250.00 A0left0"/>
    </vehicle>
    <vehicle id="239" type="passenger" depart="112.05">
        <route edges="bottom0A0.250.00 A0left0"/>
    </vehicle>
    <vehicle id="240" type="passenger" depart="112.30">
        <route edges="right0A0 right0A0.250.00"/>
    </vehicle>
    <vehicle id="241" type="passenger" depart="112.35">
        <route edges="top0A0.250.00 A0right0"/>
    </vehicle>
    <vehicle id="242" type="passenger" depart="112.35">
        <route edges="bottom0A0 bottom0A0.250.00 A0right0"/>
    </vehicle>
    <vehicle id="243" type="passenger" depart="112.60">
        <route edges="right0A0 right0A0.250.00"/>
    </vehicle>
    <vehicle id="246" type="passenger" depart="114.05">
        <route edges="left0A0.250.00 A0bottom0"/>
    </vehicle>
    <vehicle id="247" type="passenger" depart="114.05">
        <route edges="left0A0.250.00 A0bottom0"/>
    </vehicle>
    <vehicle id="249" type="passenger" depart="114.45">
        <route edges="left0A0 left0A0.250.00 A0top0"/>
    </vehicle>
    <vehicle id="252" type="passenger" depart="115.10">
        <route edges="right0A0.250.00"/>
    </vehicle>
    <vehicle id="253" type="passenger" depart="116.00">
        <route edges="bottom0A0.250.00 A0top0"/>
    </vehicle>
    <vehicle id="256" type="passenger" depart="117.35">
        <route edges="left0A0.250.00 A0bottom0"/>
    </vehicle>
    <vehicle id="258" type="passenger" depart="117.60">
        <route edges="right0A0 right0A0.250.00"/>
    </vehicle>
    <vehicle id="259" type="passenger" depart="117.95">
        <route edges="bottom0A0 bottom0A0.250.00 A0left0"/>
    </vehicle>
    <vehicle id="260" type="passenger" depart="118.20">
        <route edges="left0A0 left0A0.250.00 A0right0"/>
    </vehicle>
    <vehicle id="261" type="passenger" depart="118.60">
        <route edges="right0A0.250.00 A0left0"/>
    </vehicle>
    <vehicle id="263" type="passenger" depart="119.35">
        <route edges="left0A0.250.00"/>
    </vehicle>
    <vehicle id="264" type="passenger" depart="119.35">
        <route edges="right0A0.250.00 A0top0"/>
    </vehicle>
    <vehicle id="266" type="passenger" depart="120.10">
        <route edges="bottom0A0.250.00 A0left0"/>
    </vehicle>
    <vehicle id="268" type="passenger" depart="120.95">
        <route edges="right0A0 right0A0.250.00 A0left0"/>
    </vehicle>
    <vehicle id="270" type="passenger" depart="122.20">
        <route edges="right0A0 right0A0.250.00"/>
    </vehicle>
    <vehicle id="274" type="passenger" depart="124.10">
        <route edges="left0A0 left0A0.250.00"/>
    </vehicle>
    <vehicle id="276" type="passenger" depart="125.15">
        <route edges="left0A0.250.00 A0top0"/>
    </vehicle>
    <vehicle id="278" type="passenger" depart="125.45">
        <route edges="top0A0.250.00 A0right0"/>
    </vehicle>
    <vehicle id="280" type="passenger" depart="125.95">
        <route edges="right0A0.250.00"/>
    </vehicle>
    <vehicle id="281" type="passenger" depart="126.00">
        <route edges="right0A0 right0A0.250.00"/>
    </vehicle>
    <vehicle id="282" type="passenger" depart="126.95">
        <route edges="right0A0.250.00"/>
    </vehicle>
    <vehicle id="284" type="passenger" depart="127.25">
        <route edges="right0A0 right0A0.250.00 A0left0"/>
    </vehicle>
    <vehicle id="285" type="passenger" depart="127.85">
        <route edges="bottom0A0 bottom0A0.250.00"/>
    </vehicle>
    <vehicle id="286" type="passenger" depart="127.95">
        <route edges="bottom0A0 bottom0A0.250.00 A0top0"/>
    </vehicle>
    <vehicle id="288" type="passenger" depart="129.40">
        <route edges="left0A0.250.00"/>
    </vehicle>
    <vehicle id="290" type="passenger" depart="132.40">
        <route edges="left0A0 left0A0.250.00 A0bottom0"/>
    </vehicle>
    <vehicle id="291" type="passenger" depart="133.55">
        <route edges="right0A0 right0A0.250.00 A0top0"/>
    </vehicle>
    <vehicle id="295" type="passenger" depart="135.15">
        <route edges="top0A0 top0A0.250.00 A0bottom0"/>
    </vehicle>
    <vehicle id="296" type="passenger" depart="135.80">
        <route edges="top0A0.250.00 A0right0"/>
    </vehicle>
    <vehicle id="297" type="passenger" depart="136.05">
        <route edges="top0A0.250.00 A0left0"/>
    </vehicle>
    <vehicle id="300" type="passenger" depart="138.80">
        <route edges="top0A0.250.00 A0right0"/>
    </vehicle>
    <vehicle id="301" type="passenger" depart="139.95">
        <route edges="bottom0A0.250.00"/>
    </vehicle>
    <vehicle id="302" type="passenger" depart="140.35">
        <route edges="top0A0 top0A0.250.00 A0left0"/>
    </vehicle>
    <vehicle id="305" type="passenger" depart="141.65">
        <route edges="bottom0A0.250.00 A0left0"/>
    </vehicle>
    <vehicle id="307" type="passenger" depart="142.15">
        <route edges="left0A0 left0A0.250.00 A0right0"/>
    </vehicle>
    <vehicle id="308" type="passenger" depart="142.65">
        <route edges="left0A0.250.00 A0top0"/>
    </vehicle>
    <vehicle id="309" type="passenger" depart="142.65">
        <route edges="top0A0.250.00 A0right0"/>
    </vehicle>
    <vehicle id="310" type="passenger" depart="142.70">
        <route edges="right0A0 right0A0.250.00 A0left0"/>
    </vehicle>
    <vehicle id="311" type="passenger" depart="142.75">
        <route edges="top0A0 top0A0.250.00 A0right0"/>
    </vehicle>
    <vehicle id="313" type="passenger" depart="143.25">
        <route edges="left0A0.250.00 A0top0"/>
    </vehicle>
    <vehicle id="316" type="passenger" depart="144.70">
        <route edges="left0A0.250.00 A0bottom0"/>
    </vehicle>
    <vehicle id="317" type="passenger" depart="145.10">
        <route edges="top0A0 top0A0.250.00"/>
    </vehicle>
    <vehicle id="319" type="passenger" depart="146.05">
        <route edges="top0A0.250.00"/>
    </vehicle>
    <vehicle id="320" type="passenger" depart="146.45">
        <route edges="left0A0 left0A0.250.00"/>
    </vehicle>
    <vehicle id="321" type="passenger" depart="146.60">
        <route edges="right0A0 right0A0.250.00 A0top0"/>
    </vehicle>
    <vehicle id="322" type="passenger" depart="146.60">
        <route edges="left0A0 left0A0.250.00 A0top0"/>
    </vehicle>
    <vehicle id="324" type="passenger" depart="147.35">
        <route edges="right0A0.250.00 A0left0"/>
    </vehicle>
    <vehicle id="327" type="passenger" depart="149.00">
        <route edges="top0A0 top0A0.250.00 A0left0"/>
    </vehicle>
    <vehicle id="328" type="passenger" depart="150.00">
        <route edges="right0A0 right0A0.250.00"/>
    </vehicle>
    <vehicle id="333" type="passenger" depart="152.70">
        <route edges="right0A0.250.00 A0bottom0"/>
    </vehicle>
    <vehicle id="334" type="passenger" depart="152.75">
        <route edges="bottom0A0.250.00 A0right0"/>
    </vehicle>
    <vehicle id="335" type="passenger" depart="152.75">
        <route edges="left0A0.250.00 A0right0"/>
    </vehicle>
    <vehicle id="336" type="passenger" depart="153.15">
        <route edges="right0A0 right0A0.250.00"/>
    </vehicle>
    <vehicle id="341" type="passenger" depart="154.55">
        <route edges="left0A0 left0A0.250.00 A0bottom0"/>
    </vehicle>
    <vehicle id="345" type="passenger" depart="158.65">
        <route edges="left0A0 left0A0.250.00 A0top0"/>
    </vehicle>
    <vehicle id="348" type="passenger" depart="159.60">
        <route edges="top0A0.250.00 A0left0"/>
    </vehicle>
    <vehicle id="349" type="passenger" depart="159.75">
        <route edges="top0A0.250.00 A0bottom0"/>
    </vehicle>
    <vehicle id="353" type="passenger" depart="161.25">
        <route edges="bottom0A0.250.00 A0right0"/>
    </vehicle>
    <vehicle id="356" type="passenger" depart="163.05">
        <route edges="top0A0.250.00 A0left0"/>
    </vehicle>
    <vehicle id="357" type="passenger" depart="163.30">
        <route edges="top0A0.250.00 A0right0"/>
    </vehicle>
    <vehicle id="358" type="passenger" depart="163.35">
        <route edges="top0A0 top0A0.250.00 A0right0"/>
    </vehicle>
    <vehicle id="361" type="passenger" depart="163.80">
        <route edges="bottom0A0.250.00"/>
    </vehicle>
    <vehicle id="363" type="passenger" depart="166.10">
        <route edges="left0A0 left0A0.250.00 A0right0"/>
    </vehicle>
    <vehicle id="369" type="passenger" depart="168.15">
        <route edges="right0A0 right0A0.250.00"/>
    </vehicle>
    <vehicle id="370" type="passenger" depart="169.15">
        <route edges="right0A0.250.00 A0bottom0"/>
    </vehicle>
    <vehicle id="374" type="passenger" depart="171.05">
        <route edges="bottom0A0.250.00 A0right0"/>
    </vehicle>
    <vehicle id="375" type="passenger" depart="171.05">
        <route edges="left0A0.250.00 A0top0"/>
    </vehicle>
    <vehicle id="377" type="passenger" depart="172.65">
        <route edges="top0A0 top0A0.250.00 A0left0"/>
    </vehicle>
    <vehicle id="378" type="passenger" depart="172.80">
        <route edges="top0A0.250.00 A0left0"/>
    </vehicle>
    <vehicle id="379" type="passenger" depart="173.35">
        <route edges="bottom0A0.250.00 A0left0"/>
    </vehicle>
    <vehicle id="382" type="passenger" depart="175.35">
        <route edges="bottom0A0 bottom0A0.250.00 A0right0"/>
    </vehicle>
    <vehicle id="385" type="passenger" depart="176.90">
        <route edges="bottom0A0.250.00 A0right0"/>
    </vehicle>
    <vehicle id="388" type="passenger" depart="178.65">
        <route edges="bottom0A0 bottom0A0.250.00 A0left0"/>
    </vehicle>
    <vehicle id="389" type="passenger" depart="178.75">
        <route edges="top0A0.250.00 A0left0"/>
    </vehicle>
    <vehicle id="391" type="passenger" depart="182.45">
        <route edges="left0A0.250.00 A0bottom0"/>
    </vehicle>
    <vehicle id="392" type="passenger" depart="182.55">
        <route edges="right0A0 right0A0.250.00 A0bottom0"/>
    </vehicle>
    <vehicle id="394" type="passenger" depart="183.30">
        <route edges="bottom0A0.250.00"/>
    </vehicle>
    <vehicle id="395" type="passenger" depart="183.70">
        <route edges="left0A0 left0A0.250.00 A0right0"/>
    </vehicle>
    <vehicle id="396" type="passenger" depart="183.70">
        <route edges="right0A0 right0A0.250.00"/>
    </vehicle>
    <vehicle id="397" type="passenger" depart="184.00">
        <route edges="top0A0 top0A0.250.00"/>
    </vehicle>
    <vehicle id="399" type="passenger" depart="184.45">
        <route edges="bottom0A0.250.00 A0right0"/>
    </vehicle>
    <vehicle id="405" type="passenger" depart="186.75">
        <route edges="right0A0.250.00 A0left0"/>
    </vehicle>
    <vehicle id="406" type="passenger" depart="187.00">
        <route edges="left0A0 left0A0.250.00"/>
    </vehicle>
    <vehicle id="412" type="passenger" depart="188.40">
        <route edges="right0A0 right0A0.250.00 A0bottom0"/>
    </vehicle>
    <vehicle id="413" type="passenger" depart="188.50">
        <route edges="left0A0.250.00 A0bottom0"/>
    </vehicle>
    <vehicle id="414" type="passenger" depart="188.75">
        <route edges="right0A0.250.00 A0top0"/>
    </vehicle>
    <vehicle id="415" type="passenger" depart="189.35">
        <route edges="top0A0 top0A0.250.00 A0right0"/>
    </vehicle>
    <vehicle id="416" type="passenger" depart="189.75">
        <route edges="bottom0A0.250.00 A0right0"/>
    </vehicle>
    <vehicle id="417" type="passenger" depart="190.65">
        <route edges="top0A0.250.00 A0left0"/>
    </vehicle>
    <vehicle id="421" type="passenger" depart="191.60">
        <route edges="right0A0 right0A0.250.00"/>
    </vehicle>
    <vehicle id="424" type="passenger" depart="194.40">
        <route edges="top0A0.250.00 A0bottom0"/>
    </vehicle>
    <vehicle id="425" type="passenger" depart="194.45">
        <route edges="right0A0 right0A0.250.00 A0bottom0"/>
    </vehicle>
    <vehicle id="426" type="passenger" depart="195.15">
        <route edges="bottom0A0 bottom0A0.250.00"/>
    </vehicle>
    <vehicle id="428" type="passenger" depart="195.30">
        <route edges="left0A0 left0A0.250.00"/>
    </vehicle>
    <vehicle id="429" type="passenger" depart="196.05">
        <route edges="right0A0.250.00 A0bottom0"/>
    </vehicle>
    <vehicle id="430" type="passenger" depart="196.70">
        <route edges="top0A0.250.00 A0left0"/>
    </vehicle>
    <vehicle id="432" type="passenger" depart="197.75">
        <route edges="right0A0.250.00 A0left0"/>
    </vehicle>
    <vehicle id="435" type="passenger" depart="200.10">
        <route edges="right0A0.250.00 A0top0"/>
    </vehicle>
    <vehicle id="438" type="passenger" depart="200.90">
        <route edges="right0A0 right0A0.250.00 A0top0"/>
    </vehicle>
    <vehicle id="440" type="passenger" depart="201.20">
        <route edges="right0A0 right0A0.250.00"/>
    </vehicle>
    <vehicle id="442" type="passenger" depart="202.70">
        <route edges="bottom0A0.250.00 A0right0"/>
    </vehicle>
    <vehicle id="443" type="passenger" depart="202.75">
        <route edges="right0A0.250.00"/>
    </vehicle>
    <vehicle id="444" type="passenger" depart="203.10">
        <route edges="right0A0.250.00 A0left0"/>
    </vehicle>
    <vehicle id="445" type="passenger" depart="205.35">
        <route edges="bottom0A0.250.00"/>
    </vehicle>
    <vehicle id="448" type="passenger" depart="206.65">