<?xml version="1.0" encoding="UTF-8"?>

<!-- generated on 2023-02-12 18:46:49.985482 by randomTrips.py UNKNOWN
<configuration>
    <begin value="0"/>
    <end value="900"/>
    <insertion-rate value="12500.0"/>
    <net-file value="/home/franky3er/Documents/code/HieraGLight/scenarios/grid/5x5-150m/train/50-scenario/network.net.xml"/>
    <random value="True"/>
    <random-depart value="True"/>
    <route-file value="/home/franky3er/Documents/code/HieraGLight/scenarios/grid/5x5-150m/train/50-scenario/routes.rou.xml"/>
    <seed value="50"/>
    <output-trip-file value="/home/franky3er/Documents/code/HieraGLight/scenarios/grid/5x5-150m/train/50-scenario/trips.trips.xml"/>
    <vehicle-class value="passenger"/>
</configuration>
-->

<!-- generated on 2023-02-12 18:46:49 by Eclipse SUMO duarouter Version 1.15.0
<configuration xmlns:xsi="http://www.w3.org/2001/XMLSchema-instance" xsi:noNamespaceSchemaLocation="http://sumo.dlr.de/xsd/duarouterConfiguration.xsd">

    <input>
        <net-file value="/home/franky3er/Documents/code/HieraGLight/scenarios/grid/5x5-150m/train/50-scenario/network.net.xml"/>
        <route-files value="/home/franky3er/Documents/code/HieraGLight/scenarios/grid/5x5-150m/train/50-scenario/trips.trips.xml"/>
    </input>

    <output>
        <output-file value="/home/franky3er/Documents/code/HieraGLight/scenarios/grid/5x5-150m/train/50-scenario/routes.rou.xml"/>
        <alternatives-output value="NUL"/>
    </output>

    <time>
        <begin value="0"/>
        <end value="900"/>
    </time>

    <report>
        <no-warnings value="true"/>
        <ignore-errors value="true"/>
        <no-step-log value="true"/>
    </report>

</configuration>
-->

<routes xmlns:xsi="http://www.w3.org/2001/XMLSchema-instance" xsi:noNamespaceSchemaLocation="http://sumo.dlr.de/xsd/routes_file.xsd">
    <vType id="passenger" vClass="passenger"/>
    <vehicle id="0" type="passenger" depart="0.04">
        <route edges="A0B0.80.00"/>
    </vehicle>
    <vehicle id="1" type="passenger" depart="0.17">
        <route edges="C1B1 C1B1.80.00 B1A1 B1A1.80.00 A1A0 A1A0.80.00"/>
    </vehicle>
    <vehicle id="2" type="passenger" depart="0.51">
        <route edges="A2B2.80.00 B2C2 B2C2.80.00 C2D2 C2D2.80.00 D2D1 D2D1.80.00 D1E1 D1E1.80.00 E1right1"/>
    </vehicle>
    <vehicle id="3" type="passenger" depart="0.82">
        <route edges="E0E1.80.00 E1D1 E1D1.80.00 D1D2 D1D2.80.00 D2D3 D2D3.80.00 D3E3 D3E3.80.00 E3E2"/>
    </vehicle>
    <vehicle id="4" type="passenger" depart="1.32">
        <route edges="A4B4.80.00 B4C4 B4C4.80.00 C4D4 C4D4.80.00 D4D3 D4D3.80.00 D3E3 D3E3.80.00 E3E4 E3E4.80.00 E4D4"/>
    </vehicle>
    <vehicle id="5" type="passenger" depart="1.59">
        <route edges="D4E4 D4E4.80.00 E4E3 E4E3.80.00 E3D3 E3D3.80.00 D3C3 D3C3.80.00 C3C2"/>
    </vehicle>
    <vehicle id="6" type="passenger" depart="1.73">
        <route edges="B0C0.80.00 C0C1 C0C1.80.00 C1B1 C1B1.80.00 B1A1 B1A1.80.00 A1A0 A1A0.80.00 A0bottom0"/>
    </vehicle>
    <vehicle id="7" type="passenger" depart="1.84">
        <route edges="C1D1.80.00 D1D2 D1D2.80.00 D2D3 D2D3.80.00 D3D4 D3D4.80.00 D4E4 D4E4.80.00 E4E3"/>
    </vehicle>
    <vehicle id="8" type="passenger" depart="2.23">
        <route edges="D1E1 D1E1.80.00 E1E2 E1E2.80.00 E2E3"/>
    </vehicle>
    <vehicle id="9" type="passenger" depart="3.26">
        <route edges="A2A1.80.00 A1B1 A1B1.80.00 B1C1 B1C1.80.00 C1D1 C1D1.80.00 D1D0 D1D0.80.00 D0bottom3"/>
    </vehicle>
    <vehicle id="10" type="passenger" depart="4.18">
        <route edges="E3D3.80.00 D3C3 D3C3.80.00 C3B3 C3B3.80.00 B3A3 B3A3.80.00 A3A2 A3A2.80.00 A2A1 A2A1.80.00"/>
    </vehicle>
    <vehicle id="11" type="passenger" depart="4.34">
        <route edges="B2A2.80.00 A2A1 A2A1.80.00 A1B1 A1B1.80.00 B1C1 B1C1.80.00 C1D1 C1D1.80.00 D1E1 D1E1.80.00 E1E0 E1E0.80.00 E0bottom4"/>
    </vehicle>
    <vehicle id="12" type="passenger" depart="4.49">
        <route edges="B2B3.80.00 B3B4 B3B4.80.00 B4C4 B4C4.80.00 C4D4 C4D4.80.00"/>
    </vehicle>
    <vehicle id="13" type="passenger" depart="4.88">
        <route edges="D2D3.80.00 D3E3 D3E3.80.00 E3E2 E3E2.80.00 E2E1 E2E1.80.00 E1E0 E1E0.80.00 E0right0"/>
    </vehicle>
    <vehicle id="15" type="passenger" depart="5.09">
        <route edges="bottom3D0.80.00 D0C0 D0C0.80.00 C0C1 C0C1.80.00 C1C2 C1C2.80.00 C2D2 C2D2.80.00 D2D1"/>
    </vehicle>
    <vehicle id="16" type="passenger" depart="5.10">
        <route edges="B1C1.80.00 C1C2 C1C2.80.00 C2B2 C2B2.80.00 B2A2 B2A2.80.00 A2A3 A2A3.80.00 A3A4 A3A4.80.00 A4top0"/>
    </vehicle>
    <vehicle id="17" type="passenger" depart="5.17">
        <route edges="right3E3.80.00"/>
    </vehicle>
    <vehicle id="18" type="passenger" depart="5.86">
        <route edges="right3E3.80.00 E3D3 E3D3.80.00 D3D2 D3D2.80.00 D2D1 D2D1.80.00 D1D0 D1D0.80.00 D0E0 D0E0.80.00"/>
    </vehicle>
    <vehicle id="19" type="passenger" depart="5.94">
        <route edges="A4A3.80.00 A3A2 A3A2.80.00 A2B2 A2B2.80.00"/>
    </vehicle>
    <vehicle id="20" type="passenger" depart="6.37">
        <route edges="D4D3.80.00 D3E3"/>
    </vehicle>
    <vehicle id="21" type="passenger" depart="6.92">
        <route edges="C4D4 C4D4.80.00 D4D3 D4D3.80.00 D3C3 D3C3.80.00 C3B3 C3B3.80.00 B3B4 B3B4.80.00"/>
    </vehicle>
    <vehicle id="22" type="passenger" depart="7.17">
        <route edges="A3A4 A3A4.80.00 A4B4 A4B4.80.00 B4C4 B4C4.80.00 C4D4 C4D4.80.00 D4E4 D4E4.80.00 E4top4"/>
    </vehicle>
    <vehicle id="23" type="passenger" depart="7.35">
        <route edges="A2A1 A2A1.80.00 A1B1 A1B1.80.00 B1C1 B1C1.80.00 C1D1 C1D1.80.00 D1E1 D1E1.80.00 E1E2 E1E2.80.00 E2D2 E2D2.80.00"/>
    </vehicle>
    <vehicle id="24" type="passenger" depart="7.98">
        <route edges="B3B2.80.00 B2A2 B2A2.80.00 A2A3 A2A3.80.00 A3A4 A3A4.80.00 A4B4 A4B4.80.00 B4C4 B4C4.80.00 C4C3 C4C3.80.00"/>
    </vehicle>
    <vehicle id="25" type="passenger" depart="8.18">
        <route edges="left2A2 left2A2.80.00 A2B2 A2B2.80.00 B2C2 B2C2.80.00 C2C1 C2C1.80.00 C1C0 C1C0.80.00 C0B0 C0B0.80.00"/>
    </vehicle>
    <vehicle id="26" type="passenger" depart="8.32">
        <route edges="C1C0.80.00 C0B0 C0B0.80.00 B0B1 B0B1.80.00 B1B2 B1B2.80.00 B2C2 B2C2.80.00 C2C1"/>
    </vehicle>
    <vehicle id="27" type="passenger" depart="8.38">
        <route edges="B3B4.80.00 B4C4 B4C4.80.00 C4C3 C4C3.80.00 C3C2 C3C2.80.00 C2C1 C2C1.80.00 C1B1 C1B1.80.00 B1A1 B1A1.80.00 A1A2 A1A2.80.00"/>
    </vehicle>
    <vehicle id="28" type="passenger" depart="8.40">
        <route edges="C2B2 C2B2.80.00 B2B3 B2B3.80.00 B3C3 B3C3.80.00 C3C4"/>
    </vehicle>
    <vehicle id="29" type="passenger" depart="8.71">
        <route edges="right2E2 right2E2.80.00 E2E1 E2E1.80.00 E1D1 E1D1.80.00 D1C1 D1C1.80.00 C1C2"/>
    </vehicle>
    <vehicle id="30" type="passenger" depart="10.00">
        <route edges="B0A0.80.00 A0A1 A0A1.80.00 A1A2 A1A2.80.00 A2A3 A2A3.80.00 A3B3 A3B3.80.00 B3C3 B3C3.80.00 C3D3 C3D3.80.00 D3D2 D3D2.80.00"/>
    </vehicle>
    <vehicle id="31" type="passenger" depart="10.34">
        <route edges="B3B2.80.00 B2C2 B2C2.80.00 C2C1 C2C1.80.00 C1B1 C1B1.80.00 B1B2 B1B2.80.00"/>
    </vehicle>
    <vehicle id="32" type="passenger" depart="10.68">
        <route edges="C0C1.80.00 C1C2 C1C2.80.00 C2D2 C2D2.80.00 D2E2 D2E2.80.00 E2E3 E2E3.80.00 E3D3"/>
    </vehicle>
    <vehicle id="33" type="passenger" depart="11.06">
        <route edges="right2E2.80.00 E2D2 E2D2.80.00 D2C2 D2C2.80.00 C2B2 C2B2.80.00 B2A2 B2A2.80.00 A2A1"/>
    </vehicle>
    <vehicle id="34" type="passenger" depart="11.11">
        <route edges="C4D4.80.00 D4D3 D4D3.80.00 D3D2 D3D2.80.00 D2C2 D2C2.80.00 C2C3"/>
    </vehicle>
    <vehicle id="35" type="passenger" depart="11.42">
        <route edges="B0B1 B0B1.80.00 B1A1 B1A1.80.00 A1A2 A1A2.80.00 A2A3 A2A3.80.00 A3B3 A3B3.80.00 B3B2"/>
    </vehicle>
    <vehicle id="36" type="passenger" depart="11.54">
        <route edges="B1B0.80.00 B0C0 B0C0.80.00 C0C1 C0C1.80.00 C1B1 C1B1.80.00"/>
    </vehicle>
    <vehicle id="39" type="passenger" depart="11.74">
        <route edges="A3A2.80.00 A2B2 A2B2.80.00 B2C2 B2C2.80.00 C2D2 C2D2.80.00 D2D1 D2D1.80.00 D1C1 D1C1.80.00"/>
    </vehicle>
    <vehicle id="41" type="passenger" depart="12.28">
        <route edges="bottom0A0 bottom0A0.80.00 A0A1 A0A1.80.00 A1A2 A1A2.80.00 A2B2 A2B2.80.00 B2B3 B2B3.80.00 B3B4 B3B4.80.00 B4A4 B4A4.80.00"/>
    </vehicle>
    <vehicle id="42" type="passenger" depart="12.58">
        <route edges="C1D1 C1D1.80.00 D1D2 D1D2.80.00 D2D3 D2D3.80.00 D3D4 D3D4.80.00 D4C4 D4C4.80.00"/>
    </vehicle>
    <vehicle id="43" type="passenger" depart="12.66">
        <route edges="D1E1 D1E1.80.00 E1E2 E1E2.80.00 E2E3 E2E3.80.00 E3right3"/>
    </vehicle>
    <vehicle id="44" type="passenger" depart="12.81">
        <route edges="B4B3.80.00 B3C3 B3C3.80.00 C3D3 C3D3.80.00 D3D4 D3D4.80.00 D4C4 D4C4.80.00"/>
    </vehicle>
    <vehicle id="45" type="passenger" depart="12.83">
        <route edges="B2A2 B2A2.80.00 A2A1 A2A1.80.00 A1A0 A1A0.80.00 A0B0 A0B0.80.00 B0C0 B0C0.80.00 C0D0 C0D0.80.00 D0E0 D0E0.80.00 E0right0"/>
    </vehicle>
    <vehicle id="46" type="passenger" depart="13.23">
        <route edges="A3A2 A3A2.80.00 A2B2 A2B2.80.00 B2B3 B2B3.80.00 B3B4 B3B4.80.00 B4C4 B4C4.80.00 C4D4 C4D4.80.00 D4E4 D4E4.80.00"/>
    </vehicle>
    <vehicle id="47" type="passenger" depart="13.46">
        <route edges="E1E2.80.00 E2D2 E2D2.80.00 D2D1 D2D1.80.00 D1C1 D1C1.80.00 C1B1 C1B1.80.00 B1A1 B1A1.80.00 A1left1"/>
    </vehicle>
    <vehicle id="48" type="passenger" depart="13.62">
        <route edges="E1E2 E1E2.80.00 E2D2 E2D2.80.00 D2D3 D2D3.80.00 D3E3 D3E3.80.00 E3E2 E3E2.80.00 E2E1"/>
    </vehicle>
    <vehicle id="49" type="passenger" depart="13.86">
        <route edges="D3D2 D3D2.80.00 D2D1 D2D1.80.00 D1D0 D1D0.80.00 D0C0 D0C0.80.00 C0B0 C0B0.80.00 B0A0"/>
    </vehicle>
    <vehicle id="50" type="passenger" depart="13.90">
        <route edges="C1C0.80.00 C0D0 C0D0.80.00 D0E0 D0E0.80.00 E0E1 E0E1.80.00 E1E2 E1E2.80.00 E2E3 E2E3.80.00 E3E4 E3E4.80.00 E4D4 E4D4.80.00"/>
    </vehicle>
    <vehicle id="51" type="passenger" depart="14.14">
        <route edges="B1A1.80.00 A1A2 A1A2.80.00 A2A3 A2A3.80.00 A3A4 A3A4.80.00"/>
    </vehicle>
    <vehicle id="52" type="passenger" depart="14.21">
        <route edges="D0D1 D0D1.80.00 D1D2 D1D2.80.00 D2D3 D2D3.80.00 D3C3 D3C3.80.00 C3B3 C3B3.80.00 B3B2 B3B2.80.00"/>
    </vehicle>
    <vehicle id="53" type="passenger" depart="14.23">
        <route edges="left1A1.80.00 A1B1 A1B1.80.00 B1C1 B1C1.80.00 C1D1 C1D1.80.00 D1E1 D1E1.80.00 E1right1"/>
    </vehicle>
    <vehicle id="54" type="passenger" depart="14.81">
        <route edges="A2A1.80.00 A1B1 A1B1.80.00 B1B2 B1B2.80.00 B2B3 B2B3.80.00 B3C3 B3C3.80.00 C3D3 C3D3.80.00 D3E3 D3E3.80.00 E3E2 E3E2.80.00"/>
    </vehicle>
    <vehicle id="55" type="passenger" depart="14.90">
        <route edges="bottom0A0.80.00 A0A1 A0A1.80.00 A1B1 A1B1.80.00 B1C1 B1C1.80.00 C1C0 C1C0.80.00"/>
    </vehicle>
    <vehicle id="56" type="passenger" depart="14.94">
        <route edges="D3C3.80.00 C3B3 C3B3.80.00 B3B2 B3B2.80.00 B2B1 B2B1.80.00 B1C1"/>
    </vehicle>
    <vehicle id="57" type="passenger" depart="14.96">
        <route edges="C2C3.80.00 C3D3 C3D3.80.00 D3D2 D3D2.80.00 D2D1 D2D1.80.00 D1C1 D1C1.80.00 C1B1"/>
    </vehicle>
    <vehicle id="58" type="passenger" depart="15.10">
        <route edges="B2B3 B2B3.80.00 B3C3 B3C3.80.00 C3C2 C3C2.80.00 C2C1 C2C1.80.00 C1B1 C1B1.80.00 B1B2 B1B2.80.00"/>
    </vehicle>
    <vehicle id="59" type="passenger" depart="15.74">
        <route edges="D0E0 D0E0.80.00 E0E1 E0E1.80.00 E1E2 E1E2.80.00 E2E3 E2E3.80.00 E3D3 E3D3.80.00"/>
    </vehicle>
    <vehicle id="60" type="passenger" depart="16.34">
        <route edges="D3D2.80.00 D2C2 D2C2.80.00 C2B2 C2B2.80.00 B2B3"/>
    </vehicle>
    <vehicle id="61" type="passenger" depart="16.45">
        <route edges="B1B2.80.00 B2C2 B2C2.80.00 C2D2 C2D2.80.00 D2D1 D2D1.80.00 D1E1 D1E1.80.00 E1E2 E1E2.80.00"/>
    </vehicle>
    <vehicle id="62" type="passenger" depart="16.71">
        <route edges="A2A3 A2A3.80.00 A3A4 A3A4.80.00 A4B4 A4B4.80.00 B4C4 B4C4.80.00 C4D4 C4D4.80.00 D4E4 D4E4.80.00"/>
    </vehicle>
    <vehicle id="64" type="passenger" depart="18.10">
        <route edges="C1D1 C1D1.80.00 D1D2 D1D2.80.00 D2C2 D2C2.80.00 C2C3 C2C3.80.00 C3C4 C3C4.80.00 C4top2"/>
    </vehicle>
    <vehicle id="65" type="passenger" depart="20.06">
        <route edges="B3A3 B3A3.80.00 A3A2 A3A2.80.00 A2B2 A2B2.80.00 B2B1 B2B1.80.00 B1B0 B1B0.80.00 B0A0 B0A0.80.00 A0A1"/>
    </vehicle>
    <vehicle id="66" type="passenger" depart="20.41">
        <route edges="B1B0 B1B0.80.00 B0C0 B0C0.80.00 C0C1 C0C1.80.00 C1B1 C1B1.80.00 B1A1 B1A1.80.00"/>
    </vehicle>
    <vehicle id="67" type="passenger" depart="20.52">
        <route edges="E1D1.80.00 D1D2 D1D2.80.00 D2D3 D2D3.80.00 D3E3 D3E3.80.00 E3E4"/>
    </vehicle>
    <vehicle id="68" type="passenger" depart="20.55">
        <route edges="E3E4.80.00 E4D4 E4D4.80.00 D4top3"/>
    </vehicle>
    <vehicle id="69" type="passenger" depart="21.05">
        <route edges="left0A0 left0A0.80.00 A0B0 A0B0.80.00 B0C0 B0C0.80.00 C0D0 C0D0.80.00 D0E0 D0E0.80.00 E0E1 E0E1.80.00 E1E2 E1E2.80.00 E2D2"/>
    </vehicle>
    <vehicle id="70" type="passenger" depart="21.13">
        <route edges="B2B3 B2B3.80.00 B3C3 B3C3.80.00 C3D3 C3D3.80.00 D3D2 D3D2.80.00 D2E2 D2E2.80.00 E2E3"/>
    </vehicle>
    <vehicle id="71" type="passenger" depart="21.15">
        <route edges="left2A2.80.00 A2B2 A2B2.80.00 B2C2 B2C2.80.00 C2D2 C2D2.80.00 D2D1 D2D1.80.00 D1D0 D1D0.80.00 D0C0 D0C0.80.00"/>
    </vehicle>
    <vehicle id="72" type="passenger" depart="21.16">
        <route edges="C4C3.80.00 C3C2 C3C2.80.00 C2B2 C2B2.80.00 B2A2 B2A2.80.00 A2A1"/>
    </vehicle>
    <vehicle id="73" type="passenger" depart="21.17">
        <route edges="B3B2.80.00 B2C2 B2C2.80.00 C2D2 C2D2.80.00 D2E2 D2E2.80.00 E2right2"/>
    </vehicle>
    <vehicle id="74" type="passenger" depart="21.23">
        <route edges="D2D1 D2D1.80.00 D1C1 D1C1.80.00 C1B1 C1B1.80.00 B1A1 B1A1.80.00 A1A2 A1A2.80.00 A2A3 A2A3.80.00 A3B3"/>
    </vehicle>
    <vehicle id="75" type="passenger" depart="21.68">
        <route edges="left2A2 left2A2.80.00 A2B2 A2B2.80.00 B2C2 B2C2.80.00 C2D2 C2D2.80.00 D2E2 D2E2.80.00 E2E1"/>
    </vehicle>
    <vehicle id="76" type="passenger" depart="22.26">
        <route edges="right4E4 right4E4.80.00 E4D4 E4D4.80.00 D4C4 D4C4.80.00 C4C3 C4C3.80.00 C3C2 C3C2.80.00 C2C1 C2C1.80.00 C1C0 C1C0.80.00 C0B0 C0B0.80.00 B0A0 B0A0.80.00 A0A1"/>
    </vehicle>
    <vehicle id="77" type="passenger" depart="22.32">
        <route edges="bottom3D0 bottom3D0.80.00 D0C0 D0C0.80.00 C0B0 C0B0.80.00 B0bottom1"/>
    </vehicle>
    <vehicle id="78" type="passenger" depart="22.77">
        <route edges="A0B0.80.00 B0B1 B0B1.80.00 B1A1 B1A1.80.00 A1A2 A1A2.80.00 A2A3 A2A3.80.00 A3B3 A3B3.80.00"/>
    </vehicle>
    <vehicle id="79" type="passenger" depart="22.91">
        <route edges="C4D4.80.00 D4E4 D4E4.80.00 E4E3 E4E3.80.00 E3E2 E3E2.80.00 E2E1 E2E1.80.00 E1E0 E1E0.80.00 E0D0 E0D0.80.00 D0D1 D0D1.80.00"/>
    </vehicle>
    <vehicle id="80" type="passenger" depart="23.28">
        <route edges="right2E2 right2E2.80.00 E2D2 E2D2.80.00 D2D3 D2D3.80.00 D3E3 D3E3.80.00 E3E2 E3E2.80.00"/>
    </vehicle>
    <vehicle id="81" type="passenger" depart="23.28">
        <route edges="B3B4 B3B4.80.00 B4C4 B4C4.80.00 C4D4 C4D4.80.00 D4E4 D4E4.80.00 E4E3 E4E3.80.00 E3E2 E3E2.80.00 E2D2 E2D2.80.00"/>
    </vehicle>
    <vehicle id="82" type="passenger" depart="23.62">
        <route edges="A1A2 A1A2.80.00 A2B2 A2B2.80.00 B2C2 B2C2.80.00 C2D2 C2D2.80.00 D2D1 D2D1.80.00 D1D0 D1D0.80.00 D0E0 D0E0.80.00"/>
    </vehicle>
    <vehicle id="83" type="passenger" depart="23.74">
        <route edges="C3B3 C3B3.80.00 B3B2 B3B2.80.00 B2C2 B2C2.80.00 C2D2 C2D2.80.00 D2E2 D2E2.80.00"/>
    </vehicle>
    <vehicle id="84" type="passenger" depart="23.87">
        <route edges="B4B3.80.00 B3A3 B3A3.80.00 A3A2 A3A2.80.00 A2A1 A2A1.80.00 A1B1"/>
    </vehicle>
    <vehicle id="85" type="passenger" depart="24.40">
        <route edges="C3C2 C3C2.80.00 C2D2 C2D2.80.00 D2D1 D2D1.80.00 D1D0 D1D0.80.00 D0C0"/>
    </vehicle>
    <vehicle id="86" type="passenger" depart="24.78">
        <route edges="D4E4 D4E4.80.00 E4E3 E4E3.80.00 E3D3 E3D3.80.00 D3C3 D3C3.80.00 C3B3 C3B3.80.00"/>
    </vehicle>
    <vehicle id="87" type="passenger" depart="25.30">
        <route edges="A3B3.80.00 B3C3 B3C3.80.00 C3D3 C3D3.80.00 D3D2 D3D2.80.00 D2E2 D2E2.80.00 E2E3"/>
    </vehicle>
    <vehicle id="88" type="passenger" depart="25.46">
        <route edges="C3C4 C3C4.80.00 C4D4 C4D4.80.00 D4D3 D4D3.80.00 D3D2"/>
    </vehicle>
    <vehicle id="90" type="passenger" depart="25.60">
        <route edges="D3C3 D3C3.80.00 C3B3 C3B3.80.00 B3A3 B3A3.80.00 A3A4 A3A4.80.00"/>
    </vehicle>
    <vehicle id="91" type="passenger" depart="25.80">
        <route edges="E4E3.80.00 E3E2 E3E2.80.00 E2D2 E2D2.80.00 D2D3 D2D3.80.00 D3E3"/>
    </vehicle>
    <vehicle id="92" type="passenger" depart="25.91">
        <route edges="right3E3 right3E3.80.00 E3E2 E3E2.80.00 E2D2 E2D2.80.00 D2D3 D2D3.80.00"/>
    </vehicle>
    <vehicle id="93" type="passenger" depart="25.97">
        <route edges="C3C2 C3C2.80.00 C2D2 C2D2.80.00 D2D3 D2D3.80.00"/>
    </vehicle>
    <vehicle id="95" type="passenger" depart="26.47">
        <route edges="left1A1.80.00 A1A2"/>
    </vehicle>
    <vehicle id="96" type="passenger" depart="26.69">
        <route edges="C3B3 C3B3.80.00 B3B2 B3B2.80.00 B2C2 B2C2.80.00 C2D2 C2D2.80.00 D2E2 D2E2.80.00 E2E1 E2E1.80.00 E1E0"/>
    </vehicle>
    <vehicle id="97" type="passenger" depart="26.97">
        <route edges="E4E3.80.00 E3E2 E3E2.80.00 E2E1 E2E1.80.00 E1D1 E1D1.80.00 D1D2 D1D2.80.00"/>
    </vehicle>
    <vehicle id="98" type="passenger" depart="27.05">
        <route edges="E4E3 E4E3.80.00 E3E2 E3E2.80.00 E2D2 E2D2.80.00 D2C2 D2C2.80.00 C2C1 C2C1.80.00 C1D1 C1D1.80.00"/>
    </vehicle>
    <vehicle id="99" type="passenger" depart="27.18">
        <route edges="D0D1.80.00 D1C1 D1C1.80.00 C1C2 C1C2.80.00 C2C3"/>
    </vehicle>
    <vehicle id="100" type="passenger" depart="27.26">
        <route edges="D0C0.80.00 C0C1 C0C1.80.00 C1B1 C1B1.80.00 B1B0 B1B0.80.00 B0C0 B0C0.80.00"/>
    </vehicle>
    <vehicle id="101" type="passenger" depart="27.49">
        <route edges="bottom3D0 bottom3D0.80.00 D0D1 D0D1.80.00 D1D2 D1D2.80.00 D2D3 D2D3.80.00 D3D4 D3D4.80.00 D4E4 D4E4.80.00 E4right4"/>
    </vehicle>
    <vehicle id="102" type="passenger" depart="28.21">
        <route edges="B4B3.80.00 B3B2 B3B2.80.00 B2C2 B2C2.80.00 C2D2"/>
    </vehicle>
    <vehicle id="103" type="passenger" depart="28.46">
        <route edges="B3B4 B3B4.80.00 B4C4 B4C4.80.00 C4C3 C4C3.80.00 C3B3"/>
    </vehicle>
    <vehicle id="104" type="passenger" depart="28.90">
        <route edges="A2A3.80.00 A3B3 A3B3.80.00 B3B2 B3B2.80.00 B2B1 B2B1.80.00 B1A1 B1A1.80.00 A1left1"/>
    </vehicle>
    <vehicle id="106" type="passenger" depart="29.48">
        <route edges="B2C2 B2C2.80.00 C2D2 C2D2.80.00 D2D1 D2D1.80.00 D1E1"/>
    </vehicle>
    <vehicle id="107" type="passenger" depart="29.98">
        <route edges="D0D1 D0D1.80.00 D1C1 D1C1.80.00 C1B1 C1B1.80.00 B1A1 B1A1.80.00 A1A0 A1A0.80.00"/>
    </vehicle>
    <vehicle id="108" type="passenger" depart="30.30">
        <route edges="left2A2.80.00 A2A3 A2A3.80.00 A3B3 A3B3.80.00 B3C3 B3C3.80.00 C3D3 C3D3.80.00 D3D2 D3D2.80.00 D2C2"/>
    </vehicle>
    <vehicle id="109" type="passenger" depart="30.66">
        <route edges="C4B4 C4B4.80.00 B4A4 B4A4.80.00 A4A3 A4A3.80.00 A3A2 A3A2.80.00 A2A1 A2A1.80.00"/>
    </vehicle>
    <vehicle id="110" type="passenger" depart="30.72">
        <route edges="left2A2 left2A2.80.00 A2B2 A2B2.80.00 B2B1"/>
    </vehicle>
    <vehicle id="111" type="passenger" depart="31.38">
        <route edges="E4D4 E4D4.80.00 D4D3 D4D3.80.00 D3D2 D3D2.80.00 D2C2 D2C2.80.00 C2B2 C2B2.80.00 B2A2 B2A2.80.00"/>
    </vehicle>
    <vehicle id="112" type="passenger" depart="32.07">
        <route edges="C0C1.80.00 C1C2 C1C2.80.00 C2C3 C2C3.80.00 C3C4 C3C4.80.00 C4D4 C4D4.80.00 D4D3 D4D3.80.00"/>
    </vehicle>
    <vehicle id="113" type="passenger" depart="32.14">
        <route edges="E1E0.80.00 E0D0 E0D0.80.00 D0C0 D0C0.80.00 C0C1 C0C1.80.00 C1B1 C1B1.80.00 B1B0 B1B0.80.00"/>
    </vehicle>
    <vehicle id="114" type="passenger" depart="32.43">
        <route edges="C1D1.80.00 D1D2 D1D2.80.00 D2D3 D2D3.80.00 D3D4 D3D4.80.00 D4C4"/>
    </vehicle>
    <vehicle id="115" type="passenger" depart="32.72">
        <route edges="E2E1 E2E1.80.00"/>
    </vehicle>
    <vehicle id="116" type="passenger" depart="33.82">
        <route edges="E4D4.80.00 D4C4 D4C4.80.00 C4B4 C4B4.80.00 B4B3 B4B3.80.00 B3C3 B3C3.80.00"/>
    </vehicle>
    <vehicle id="117" type="passenger" depart="33.92">
        <route edges="left1A1 left1A1.80.00 A1B1 A1B1.80.00 B1C1 B1C1.80.00 C1D1 C1D1.80.00 D1D2 D1D2.80.00 D2D3 D2D3.80.00 D3D4 D3D4.80.00 D4C4"/>
    </vehicle>
    <vehicle id="118" type="passenger" depart="34.32">
        <route edges="A0B0 A0B0.80.00 B0C0 B0C0.80.00 C0C1 C0C1.80.00"/>
    </vehicle>
    <vehicle id="119" type="passenger" depart="34.66">
        <route edges="B0C0.80.00 C0C1 C0C1.80.00 C1B1 C1B1.80.00 B1B2 B1B2.80.00 B2B3 B2B3.80.00 B3C3 B3C3.80.00 C3C2"/>
    </vehicle>
    <vehicle id="120" type="passenger" depart="34.78">
        <route edges="B3C3.80.00 C3C2 C3C2.80.00 C2B2 C2B2.80.00 B2B3 B2B3.80.00"/>
    </vehicle>
    <vehicle id="121" type="passenger" depart="35.34">
        <route edges="C3B3 C3B3.80.00 B3B2 B3B2.80.00 B2A2 B2A2.80.00 A2left2"/>
    </vehicle>
    <vehicle id="122" type="passenger" depart="35.51">
        <route edges="E4D4.80.00 D4D3 D4D3.80.00 D3D2 D3D2.80.00 D2D1 D2D1.80.00 D1D0 D1D0.80.00 D0C0 D0C0.80.00 C0B0"/>
    </vehicle>
    <vehicle id="124" type="passenger" depart="35.91">
        <route edges="D2E2.80.00 E2E3 E2E3.80.00 E3D3 E3D3.80.00 D3C3 D3C3.80.00 C3B3 C3B3.80.00 B3A3 B3A3.80.00"/>
    </vehicle>
    <vehicle id="125" type="passenger" depart="36.01">
        <route edges="C0C1.80.00 C1D1 C1D1.80.00 D1D0 D1D0.80.00 D0E0 D0E0.80.00 E0E1 E0E1.80.00"/>
    </vehicle>
    <vehicle id="126" type="passenger" depart="36.27">
        <route edges="top3D4.80.00 D4C4 D4C4.80.00 C4B4 C4B4.80.00 B4B3"/>
    </vehicle>
    <vehicle id="127" type="passenger" depart="36.86">
        <route edges="B1B0 B1B0.80.00 B0C0 B0C0.80.00 C0D0 C0D0.80.00 D0E0 D0E0.80.00 E0right0"/>
    </vehicle>
    <vehicle id="128" type="passenger" depart="37.26">
        <route edges="C2B2.80.00 B2B3 B2B3.80.00 B3C3 B3C3.80.00 C3C2 C3C2.80.00 C2C1 C2C1.80.00 C1B1"/>
    </vehicle>
    <vehicle id="129" type="passenger" depart="37.47">
        <route edges="D2E2 D2E2.80.00 E2E3 E2E3.80.00 E3E4"/>
    </vehicle>
    <vehicle id="130" type="passenger" depart="37.54">
        <route edges="E4D4.80.00 D4D3 D4D3.80.00 D3D2 D3D2.80.00 D2C2 D2C2.80.00 C2B2 C2B2.80.00 B2A2"/>
    </vehicle>
    <vehicle id="131" type="passenger" depart="37.75">
        <route edges="D3C3.80.00 C3C2 C3C2.80.00 C2C1 C2C1.80.00 C1C0 C1C0.80.00 C0B0 C0B0.80.00 B0A0 B0A0.80.00 A0left0"/>
    </vehicle>
    <vehicle id="132" type="passenger" depart="38.17">
        <route edges="A3A2.80.00 A2left2"/>
    </vehicle>
    <vehicle id="133" type="passenger" depart="38.19">
        <route edges="B0B1.80.00 B1C1 B1C1.80.00 C1D1 C1D1.80.00 D1D0 D1D0.80.00 D0C0 D0C0.80.00"/>
    </vehicle>
    <vehicle id="135" type="passenger" depart="38.53">
        <route edges="C0D0 C0D0.80.00 D0D1 D0D1.80.00 D1D2 D1D2.80.00 D2D3 D2D3.80.00 D3D4 D3D4.80.00 D4E4 D4E4.80.00"/>
    </vehicle>
    <vehicle id="136" type="passenger" depart="38.62">
        <route edges="B2B1 B2B1.80.00 B1A1 B1A1.80.00 A1A2 A1A2.80.00 A2A3 A2A3.80.00 A3A4 A3A4.80.00 A4B4 A4B4.80.00 B4top1"/>
    </vehicle>
    <vehicle id="137" type="passenger" depart="39.98">
        <route edges="D1E1.80.00 E1E2 E1E2.80.00 E2D2 E2D2.80.00 D2D3 D2D3.80.00 D3D4 D3D4.80.00 D4E4"/>
    </vehicle>
    <vehicle id="138" type="passenger" depart="40.42">
        <route edges="E3D3.80.00 D3D2 D3D2.80.00 D2D1 D2D1.80.00 D1C1 D1C1.80.00 C1B1 C1B1.80.00 B1A1"/>
    </vehicle>
    <vehicle id="139" type="passenger" depart="42.66">
        <route edges="D1D0.80.00 D0C0 D0C0.80.00 C0C1 C0C1.80.00 C1B1 C1B1.80.00 B1B0 B1B0.80.00"/>
    </vehicle>
    <vehicle id="141" type="passenger" depart="43.21">
        <route edges="right3E3.80.00 E3D3 E3D3.80.00 D3C3 D3C3.80.00 C3C4 C3C4.80.00 C4B4 C4B4.80.00 B4A4 B4A4.80.00 A4left4"/>
    </vehicle>
    <vehicle id="142" type="passenger" depart="43.39">
        <route edges="top4E4.80.00 E4E3 E4E3.80.00 E3D3 E3D3.80.00 D3D4 D3D4.80.00 D4E4"/>
    </vehicle>
    <vehicle id="143" type="passenger" depart="44.18">
        <route edges="bottom2C0.80.00 C0C1 C0C1.80.00 C1C2 C1C2.80.00 C2D2 C2D2.80.00 D2E2"/>
    </vehicle>
    <vehicle id="145" type="passenger" depart="44.20">
        <route edges="B0B1.80.00 B1C1 B1C1.80.00 C1D1 C1D1.80.00 D1D2 D1D2.80.00 D2C2 D2C2.80.00"/>
    </vehicle>
    <vehicle id="146" type="passenger" depart="44.59">
        <route edges="D3E3 D3E3.80.00 E3E4 E3E4.80.00 E4D4 E4D4.80.00 D4C4 D4C4.80.00 C4B4 C4B4.80.00 B4A4 B4A4.80.00 A4left4"/>
    </vehicle>
    <vehicle id="147" type="passenger" depart="45.23">
        <route edges="A1B1 A1B1.80.00 B1C1 B1C1.80.00 C1D1 C1D1.80.00 D1D2 D1D2.80.00 D2D3"/>
    </vehicle>
    <vehicle id="148" type="passenger" depart="45.50">
        <route edges="top3D4 top3D4.80.00 D4E4 D4E4.80.00 E4E3 E4E3.80.00 E3D3 E3D3.80.00"/>
    </vehicle>
    <vehicle id="149" type="passenger" depart="45.54">
        <route edges="B0B1 B0B1.80.00 B1B2 B1B2.80.00 B2B3 B2B3.80.00"/>
    </vehicle>
    <vehicle id="150" type="passenger" depart="45.57">
        <route edges="B0B1 B0B1.80.00 B1B2 B1B2.80.00 B2C2 B2C2.80.00 C2D2 C2D2.80.00 D2E2 D2E2.80.00 E2E1"/>
    </vehicle>
    <vehicle id="151" type="passenger" depart="45.61">
        <route edges="C0D0.80.00 D0D1 D0D1.80.00 D1D2 D1D2.80.00 D2D3 D2D3.80.00 D3C3 D3C3.80.00 C3B3 C3B3.80.00"/>
    </vehicle>
    <vehicle id="152" type="passenger" depart="45.88">
        <route edges="E2E3 E2E3.80.00 E3E4 E3E4.80.00 E4right4"/>
    </vehicle>
    <vehicle id="153" type="passenger" depart="46.14">
        <route edges="D1D2 D1D2.80.00 D2D3 D2D3.80.00 D3D4 D3D4.80.00 D4E4 D4E4.80.00 E4right4"/>
    </vehicle>
    <vehicle id="154" type="passenger" depart="46.16">
        <route edges="bottom4E0 bottom4E0.80.00 E0E1 E0E1.80.00 E1E2 E1E2.80.00 E2E3 E2E3.80.00 E3E4 E3E4.80.00 E4D4 E4D4.80.00 D4C4"/>
    </vehicle>
    <vehicle id="155" type="passenger" depart="46.74">
        <route edges="A1A2.80.00 A2A3 A2A3.80.00 A3B3 A3B3.80.00 B3C3 B3C3.80.00 C3D3 C3D3.80.00 D3E3 D3E3.80.00"/>
    </vehicle>
    <vehicle id="156" type="passenger" depart="46.91">
        <route edges="right1E1 right1E1.80.00 E1D1 E1D1.80.00 D1C1 D1C1.80.00 C1C2 C1C2.80.00 C2C3 C2C3.80.00 C3C4"/>
    </vehicle>
    <vehicle id="157" type="passenger" depart="47.43">
        <route edges="B1B0 B1B0.80.00 B0C0 B0C0.80.00 C0C1 C0C1.80.00 C1C2 C1C2.80.00 C2C3 C2C3.80.00 C3C4 C3C4.80.00 C4D4"/>
    </vehicle>
    <vehicle id="158" type="passenger" depart="47.61">
        <route edges="B2B3.80.00 B3A3 B3A3.80.00 A3A2 A3A2.80.00 A2A1 A2A1.80.00 A1A0 A1A0.80.00 A0B0 A0B0.80.00"/>
    </vehicle>
    <vehicle id="159" type="passenger" depart="47.65">
        <route edges="B0B1.80.00 B1B2 B1B2.80.00 B2B3 B2B3.80.00 B3B4 B3B4.80.00 B4C4 B4C4.80.00 C4D4 C4D4.80.00 D4E4 D4E4.80.00 E4E3"/>
    </vehicle>
    <vehicle id="160" type="passenger" depart="47.66">
        <route edges="right0E0 right0E0.80.00 E0D0 E0D0.80.00 D0D1 D0D1.80.00 D1E1 D1E1.80.00 E1E0 E1E0.80.00"/>
    </vehicle>
    <vehicle id="161" type="passenger" depart="47.95">
        <route edges="C2D2.80.00 D2D1 D2D1.80.00 D1C1 D1C1.80.00"/>
    </vehicle>
    <vehicle id="162" type="passenger" depart="48.05">
        <route edges="A2A3 A2A3.80.00 A3B3 A3B3.80.00 B3C3 B3C3.80.00 C3C2 C3C2.80.00 C2C1 C2C1.80.00 C1D1 C1D1.80.00 D1D2"/>
    </vehicle>
    <vehicle id="164" type="passenger" depart="48.95">
        <route edges="E3E2.80.00 E2D2 E2D2.80.00 D2D1"/>
    </vehicle>
    <vehicle id="165" type="passenger" depart="49.11">
        <route edges="E2E3.80.00 E3D3 E3D3.80.00 D3D2 D3D2.80.00 D2C2 D2C2.80.00 C2B2 C2B2.80.00 B2B3"/>
    </vehicle>
    <vehicle id="166" type="passenger" depart="49.21">
        <route edges="B4B3.80.00 B3A3 B3A3.80.00 A3A4 A3A4.80.00 A4B4 A4B4.80.00 B4C4 B4C4.80.00"/>
    </vehicle>
    <vehicle id="167" type="passenger" depart="49.44">
        <route edges="D1D0 D1D0.80.00 D0C0 D0C0.80.00 C0C1 C0C1.80.00 C1C2 C1C2.80.00 C2C3 C2C3.80.00 C3C4 C3C4.80.00 C4B4 C4B4.80.00 B4B3 B4B3.80.00"/>
    </vehicle>
    <vehicle id="168" type="passenger" depart="49.54">
        <route edges="E1E2.80.00 E2D2 E2D2.80.00 D2D1 D2D1.80.00 D1E1 D1E1.80.00 E1E2"/>
    </vehicle>
    <vehicle id="169" type="passenger" depart="49.66">
        <route edges="top4E4.80.00 E4E3 E4E3.80.00 E3E2 E3E2.80.00 E2D2 E2D2.80.00 D2D1 D2D1.80.00 D1D0"/>
    </vehicle>
    <vehicle id="170" type="passenger" depart="49.79">
        <route edges="B3A3.80.00 A3A2 A3A2.80.00 A2A1 A2A1.80.00 A1B1 A1B1.80.00 B1C1"/>
    </vehicle>
    <vehicle id="171" type="passenger" depart="49.89">
        <route edges="B0B1 B0B1.80.00 B1C1 B1C1.80.00 C1D1 C1D1.80.00 D1D0 D1D0.80.00 D0C0 D0C0.80.00 C0C1"/>
    </vehicle>
    <vehicle id="173" type="passenger" depart="50.23">
        <route edges="B2B3 B2B3.80.00 B3C3 B3C3.80.00 C3C2 C3C2.80.00 C2D2 C2D2.80.00 D2D3"/>
    </vehicle>
    <vehicle id="174" type="passenger" depart="50.66">
        <route edges="D1C1 D1C1.80.00 C1C2 C1C2.80.00 C2C3 C2C3.80.00 C3D3 C3D3.80.00"/>
    </vehicle>
    <vehicle id="175" type="passenger" depart="50.67">