<?xml version="1.0" encoding="UTF-8"?>

<!-- generated on 2023-02-12 18:46:49.805829 by randomTrips.py UNKNOWN
<configuration>
    <begin value="0"/>
    <end value="900"/>
    <insertion-rate value="12500.0"/>
    <net-file value="/home/franky3er/Documents/code/HieraGLight/scenarios/grid/5x5-150m/train/50-scenario/network.net.xml"/>
    <random value="True"/>
    <random-depart value="True"/>
    <route-file value="/home/franky3er/Documents/code/HieraGLight/scenarios/grid/5x5-150m/train/50-scenario/routes.rou.xml"/>
    <seed value="50"/>
    <output-trip-file value="/home/franky3er/Documents/code/HieraGLight/scenarios/grid/5x5-150m/train/50-scenario/trips.trips.xml"/>
    <vehicle-class value="passenger"/>
</configuration>
-->

<routes xmlns:xsi="http://www.w3.org/2001/XMLSchema-instance" xsi:noNamespaceSchemaLocation="http://sumo.dlr.de/xsd/routes_file.xsd">
    <vType id="passenger" vClass="passenger"/>
    <trip id="0" depart="0.04" from="A0B0.80.00" to="A0B0.80.00" type="passenger"/>
    <trip id="1" depart="0.17" from="C1B1" to="A1A0.80.00" type="passenger"/>
    <trip id="2" depart="0.51" from="A2B2.80.00" to="E1right1" type="passenger"/>
    <trip id="3" depart="0.82" from="E0E1.80.00" to="E3E2" type="passenger"/>
    <trip id="4" depart="1.32" from="A4B4.80.00" to="E4D4" type="passenger"/>
    <trip id="5" depart="1.59" from="D4E4" to="C3C2" type="passenger"/>
    <trip id="6" depart="1.73" from="B0C0.80.00" to="A0bottom0" type="passenger"/>
    <trip id="7" depart="1.84" from="C1D1.80.00" to="E4E3" type="passenger"/>
    <trip id="8" depart="2.23" from="D1E1" to="E2E3" type="passenger"/>
    <trip id="9" depart="3.26" from="A2A1.80.00" to="D0bottom3" type="passenger"/>
    <trip id="10" depart="4.18" from="E3D3.80.00" to="A2A1.80.00" type="passenger"/>
    <trip id="11" depart="4.34" from="B2A2.80.00" to="E0bottom4" type="passenger"/>
    <trip id="12" depart="4.49" from="B2B3.80.00" to="C4D4.80.00" type="passenger"/>
    <trip id="13" depart="4.88" from="D2D3.80.00" to="E0right0" type="passenger"/>
    <trip id="14" depart="5.01" from="right0E0" to="top2C4.80.00" type="passenger"/>
    <trip id="15" depart="5.09" from="bottom3D0.80.00" to="D2D1" type="passenger"/>
    <trip id="16" depart="5.10" from="B1C1.80.00" to="A4top0" type="passenger"/>
    <trip id="17" depart="5.17" from="right3E3.80.00" to="right3E3.80.00" type="passenger"/>
    <trip id="18" depart="5.86" from="right3E3.80.00" to="D0E0.80.00" type="passenger"/>
    <trip id="19" depart="5.94" from="A4A3.80.00" to="A2B2.80.00" type="passenger"/>
    <trip id="20" depart="6.37" from="D4D3.80.00" to="D3E3" type="passenger"/>
    <trip id="21" depart="6.92" from="C4D4" to="B3B4.80.00" type="passenger"/>
    <trip id="22" depart="7.17" from="A3A4" to="E4top4" type="passenger"/>
    <trip id="23" depart="7.35" from="A2A1" to="E2D2.80.00" type="passenger"/>
    <trip id="24" depart="7.98" from="B3B2.80.00" to="C4C3.80.00" type="passenger"/>
    <trip id="25" depart="8.18" from="left2A2" to="C0B0.80.00" type="passenger"/>
    <trip id="26" depart="8.32" from="C1C0.80.00" to="C2C1" type="passenger"/>
    <trip id="27" depart="8.38" from="B3B4.80.00" to="A1A2.80.00" type="passenger"/>
    <trip id="28" depart="8.40" from="C2B2" to="C3C4" type="passenger"/>
    <trip id="29" depart="8.71" from="right2E2" to="C1C2" type="passenger"/>
    <trip id="30" depart="10.00" from="B0A0.80.00" to="D3D2.80.00" type="passenger"/>
    <trip id="31" depart="10.34" from="B3B2.80.00" to="B1B2.80.00" type="passenger"/>
    <trip id="32" depart="10.68" from="C0C1.80.00" to="E3D3" type="passenger"/>
    <trip id="33" depart="11.06" from="right2E2.80.00" to="A2A1" type="passenger"/>
    <trip id="34" depart="11.11" from="C4D4.80.00" to="C2C3" type="passenger"/>
    <trip id="35" depart="11.42" from="B0B1" to="B3B2" type="passenger"/>
    <trip id="36" depart="11.54" from="B1B0.80.00" to="C1B1.80.00" type="passenger"/>
    <trip id="37" depart="11.69" from="D1D0" to="top3D4.80.00" type="passenger"/>
    <trip id="38" depart="11.73" from="A1B1" to="top0A4.80.00" type="passenger"/>
    <trip id="39" depart="11.74" from="A3A2.80.00" to="D1C1.80.00" type="passenger"/>
    <trip id="40" depart="12.04" from="B4B3.80.00" to="bottom0A0.80.00" type="passenger"/>
    <trip id="41" depart="12.28" from="bottom0A0" to="B4A4.80.00" type="passenger"/>
    <trip id="42" depart="12.58" from="C1D1" to="D4C4.80.00" type="passenger"/>
    <trip id="43" depart="12.66" from="D1E1" to="E3right3" type="passenger"/>
    <trip id="44" depart="12.81" from="B4B3.80.00" to="D4C4.80.00" type="passenger"/>
    <trip id="45" depart="12.83" from="B2A2" to="E0right0" type="passenger"/>
    <trip id="46" depart="13.23" from="A3A2" to="D4E4.80.00" type="passenger"/>
    <trip id="47" depart="13.46" from="E1E2.80.00" to="A1left1" type="passenger"/>
    <trip id="48" depart="13.62" from="E1E2" to="E2E1" type="passenger"/>
    <trip id="49" depart="13.86" from="D3D2" to="B0A0" type="passenger"/>
    <trip id="50" depart="13.90" from="C1C0.80.00" to="E4D4.80.00" type="passenger"/>
    <trip id="51" depart="14.14" from="B1A1.80.00" to="A3A4.80.00" type="passenger"/>
    <trip id="52" depart="14.21" from="D0D1" to="B3B2.80.00" type="passenger"/>
    <trip id="53" depart="14.23" from="left1A1.80.00" to="E1right1" type="passenger"/>
    <trip id="54" depart="14.81" from="A2A1.80.00" to="E3E2.80.00" type="passenger"/>
    <trip id="55" depart="14.90" from="bottom0A0.80.00" to="C1C0.80.00" type="passenger"/>
    <trip id="56" depart="14.94" from="D3C3.80.00" to="B1C1" type="passenger"/>
    <trip id="57" depart="14.96" from="C2C3.80.00" to="C1B1" type="passenger"/>
    <trip id="58" depart="15.10" from="B2B3" to="B1B2.80.00" type="passenger"/>
    <trip id="59" depart="15.74" from="D0E0" to="E3D3.80.00" type="passenger"/>
    <trip id="60" depart="16.34" from="D3D2.80.00" to="B2B3" type="passenger"/>
    <trip id="61" depart="16.45" from="B1B2.80.00" to="E1E2.80.00" type="passenger"/>
    <trip id="62" depart="16.71" from="A2A3" to="D4E4.80.00" type="passenger"/>
    <trip id="63" depart="17.58" from="top0A4.80.00" to="right2E2.80.00" type="passenger"/>
    <trip id="64" depart="18.10" from="C1D1" to="C4top2" type="passenger"/>
    <trip id="65" depart="20.06" from="B3A3" to="A0A1" type="passenger"/>
    <trip id="66" depart="20.41" from="B1B0" to="B1A1.80.00" type="passenger"/>
    <trip id="67" depart="20.52" from="E1D1.80.00" to="E3E4" type="passenger"/>
    <trip id="68" depart="20.55" from="E3E4.80.00" to="D4top3" type="passenger"/>
    <trip id="69" depart="21.05" from="left0A0" to="E2D2" type="passenger"/>
    <trip id="70" depart="21.13" from="B2B3" to="E2E3" type="passenger"/>
    <trip id="71" depart="21.15" from="left2A2.80.00" to="D0C0.80.00" type="passenger"/>
    <trip id="72" depart="21.16" from="C4C3.80.00" to="A2A1" type="passenger"/>
    <trip id="73" depart="21.17" from="B3B2.80.00" to="E2right2" type="passenger"/>
    <trip id="74" depart="21.23" from="D2D1" to="A3B3" type="passenger"/>
    <trip id="75" depart="21.68" from="left2A2" to="E2E1" type="passenger"/>
    <trip id="76" depart="22.26" from="right4E4" to="A0A1" type="passenger"/>
    <trip id="77" depart="22.32" from="bottom3D0" to="B0bottom1" type="passenger"/>
    <trip id="78" depart="22.77" from="A0B0.80.00" to="A3B3.80.00" type="passenger"/>
    <trip id="79" depart="22.91" from="C4D4.80.00" to="D0D1.80.00" type="passenger"/>
    <trip id="80" depart="23.28" from="right2E2" to="E3E2.80.00" type="passenger"/>
    <trip id="81" depart="23.28" from="B3B4" to="E2D2.80.00" type="passenger"/>
    <trip id="82" depart="23.62" from="A1A2" to="D0E0.80.00" type="passenger"/>
    <trip id="83" depart="23.74" from="C3B3" to="D2E2.80.00" type="passenger"/>
    <trip id="84" depart="23.87" from="B4B3.80.00" to="A1B1" type="passenger"/>
    <trip id="85" depart="24.40" from="C3C2" to="D0C0" type="passenger"/>
    <trip id="86" depart="24.78" from="D4E4" to="C3B3.80.00" type="passenger"/>
    <trip id="87" depart="25.30" from="A3B3.80.00" to="E2E3" type="passenger"/>
    <trip id="88" depart="25.46" from="C3C4" to="D3D2" type="passenger"/>
    <trip id="89" depart="25.59" from="E2E1.80.00" to="bottom2C0.80.00" type="passenger"/>
    <trip id="90" depart="25.60" from="D3C3" to="A3A4.80.00" type="passenger"/>
    <trip id="91" depart="25.80" from="E4E3.80.00" to="D3E3" type="passenger"/>
    <trip id="92" depart="25.91" from="right3E3" to="D2D3.80.00" type="passenger"/>
    <trip id="93" depart="25.97" from="C3C2" to="D2D3.80.00" type="passenger"/>
    <trip id="94" depart="25.99" from="bottom4E0.80.00" to="bottom3D0.80.00" type="passenger"/>
    <trip id="95" depart="26.47" from="left1A1.80.00" to="A1A2" type="passenger"/>
    <trip id="96" depart="26.69" from="C3B3" to="E1E0" type="passenger"/>
    <trip id="97" depart="26.97" from="E4E3.80.00" to="D1D2.80.00" type="passenger"/>
    <trip id="98" depart="27.05" from="E4E3" to="C1D1.80.00" type="passenger"/>
    <trip id="99" depart="27.18" from="D0D1.80.00" to="C2C3" type="passenger"/>
    <trip id="100" depart="27.26" from="D0C0.80.00" to="B0C0.80.00" type="passenger"/>
    <trip id="101" depart="27.49" from="bottom3D0" to="E4right4" type="passenger"/>
    <trip id="102" depart="28.21" from="B4B3.80.00" to="C2D2" type="passenger"/>
    <trip id="103" depart="28.46" from="B3B4" to="C3B3" type="passenger"/>
    <trip id="104" depart="28.90" from="A2A3.80.00" to="A1left1" type="passenger"/>
    <trip id="105" depart="29.38" from="B1B0" to="right4E4.80.00" type="passenger"/>
    <trip id="106" depart="29.48" from="B2C2" to="D1E1" type="passenger"/>
    <trip id="107" depart="29.98" from="D0D1" to="A1A0.80.00" type="passenger"/>
    <trip id="108" depart="30.30" from="left2A2.80.00" to="D2C2" type="passenger"/>
    <trip id="109" depart="30.66" from="C4B4" to="A2A1.80.00" type="passenger"/>
    <trip id="110" depart="30.72" from="left2A2" to="B2B1" type="passenger"/>
    <trip id="111" depart="31.38" from="E4D4" to="B2A2.80.00" type="passenger"/>
    <trip id="112" depart="32.07" from="C0C1.80.00" to="D4D3.80.00" type="passenger"/>
    <trip id="113" depart="32.14" from="E1E0.80.00" to="B1B0.80.00" type="passenger"/>
    <trip id="114" depart="32.43" from="C1D1.80.00" to="D4C4" type="passenger"/>
    <trip id="115" depart="32.72" from="E2E1" to="E2E1.80.00" type="passenger"/>
    <trip id="116" depart="33.82" from="E4D4.80.00" to="B3C3.80.00" type="passenger"/>
    <trip id="117" depart="33.92" from="left1A1" to="D4C4" type="passenger"/>
    <trip id="118" depart="34.32" from="A0B0" to="C0C1.80.00" type="passenger"/>
    <trip id="119" depart="34.66" from="B0C0.80.00" to="C3C2" type="passenger"/>
    <trip id="120" depart="34.78" from="B3C3.80.00" to="B2B3.80.00" type="passenger"/>
    <trip id="121" depart="35.34" from="C3B3" to="A2left2" type="passenger"/>
    <trip id="122" depart="35.51" from="E4D4.80.00" to="C0B0" type="passenger"/>
    <trip id="123" depart="35.62" from="bottom1B0" to="left3A3.80.00" type="passenger"/>
    <trip id="124" depart="35.91" from="D2E2.80.00" to="B3A3.80.00" type="passenger"/>
    <trip id="125" depart="36.01" from="C0C1.80.00" to="E0E1.80.00" type="passenger"/>
    <trip id="126" depart="36.27" from="top3D4.80.00" to="B4B3" type="passenger"/>
    <trip id="127" depart="36.86" from="B1B0" to="E0right0" type="passenger"/>
    <trip id="128" depart="37.26" from="C2B2.80.00" to="C1B1" type="passenger"/>
    <trip id="129" depart="37.47" from="D2E2" to="E3E4" type="passenger"/>
    <trip id="130" depart="37.54" from="E4D4.80.00" to="B2A2" type="passenger"/>
    <trip id="131" depart="37.75" from="D3C3.80.00" to="A0left0" type="passenger"/>
    <trip id="132" depart="38.17" from="A3A2.80.00" to="A2left2" type="passenger"/>
    <trip id="133" depart="38.19" from="B0B1.80.00" to="D0C0.80.00" type="passenger"/>
    <trip id="134" depart="38.32" from="D2E2" to="top4E4.80.00" type="passenger"/>
    <trip id="135" depart="38.53" from="C0D0" to="D4E4.80.00" type="passenger"/>
    <trip id="136" depart="38.62" from="B2B1" to="B4top1" type="passenger"/>
    <trip id="137" depart="39.98" from="D1E1.80.00" to="D4E4" type="passenger"/>
    <trip id="138" depart="40.42" from="E3D3.80.00" to="B1A1" type="passenger"/>
    <trip id="139" depart="42.66" from="D1D0.80.00" to="B1B0.80.00" type="passenger"/>
    <trip id="140" depart="42.74" from="A0A1.80.00" to="top2C4.80.00" type="passenger"/>
    <trip id="141" depart="43.21" from="right3E3.80.00" to="A4left4" type="passenger"/>
    <trip id="142" depart="43.39" from="top4E4.80.00" to="D4E4" type="passenger"/>
    <trip id="143" depart="44.18" from="bottom2C0.80.00" to="D2E2" type="passenger"/>
    <trip id="144" depart="44.20" from="A4B4" to="top2C4.80.00" type="passenger"/>
    <trip id="145" depart="44.20" from="B0B1.80.00" to="D2C2.80.00" type="passenger"/>
    <trip id="146" depart="44.59" from="D3E3" to="A4left4" type="passenger"/>
    <trip id="147" depart="45.23" from="A1B1" to="D2D3" type="passenger"/>
    <trip id="148" depart="45.50" from="top3D4" to="E3D3.80.00" type="passenger"/>
    <trip id="149" depart="45.54" from="B0B1" to="B2B3.80.00" type="passenger"/>
    <trip id="150" depart="45.57" from="B0B1" to="E2E1" type="passenger"/>
    <trip id="151" depart="45.61" from="C0D0.80.00" to="C3B3.80.00" type="passenger"/>
    <trip id="152" depart="45.88" from="E2E3" to="E4right4" type="passenger"/>
    <trip id="153" depart="46.14" from="D1D2" to="E4right4" type="passenger"/>
    <trip id="154" depart="46.16" from="bottom4E0" to="D4C4" type="passenger"/>
    <trip id="155" depart="46.74" from="A1A2.80.00" to="D3E3.80.00" type="passenger"/>
    <trip id="156" depart="46.91" from="right1E1" to="C3C4" type="passenger"/>
    <trip id="157" depart="47.43" from="B1B0" to="C4D4" type="passenger"/>
    <trip id="158" depart="47.61" from="B2B3.80.00" to="A0B0.80.00" type="passenger"/>
    <trip id="159" depart="47.65" from="B0B1.80.00" to="E4E3" type="passenger"/>
    <trip id="160" depart="47.66" from="right0E0" to="E1E0.80.00" type="passenger"/>
    <trip id="161" depart="47.95" from="C2D2.80.00" to="D1C1.80.00" type="passenger"/>
    <trip id="162" depart="48.05" from="A2A3" to="D1D2" type="passenger"/>
    <trip id="163" depart="48.22" from="E1E2" to="right0E0.80.00" type="passenger"/>
    <trip id="164" depart="48.95" from="E3E2.80.00" to="D2D1" type="passenger"/>
    <trip id="165" depart="49.11" from="E2E3.80.00" to="B2B3" type="passenger"/>
    <trip id="166" depart="49.21" from="B4B3.80.00" to="B4C4.80.00" type="passenger"/>
    <trip id="167" depart="49.44" from="D1D0" to="B4B3.80.00" type="passenger"/>
    <trip id="168" depart="49.54" from="E1E2.80.00" to="E1E2" type="passenger"/>
    <trip id="169" depart="49.66" from="top4E4.80.00" to="D1D0" type="passenger"/>
    <trip id="170" depart="49.79" from="B3A3.80.00" to="B1C1" type="passenger"/>
    <trip id="171" depart="49.89" from="B0B1" to="C0C1" type="passenger"/>
    <trip id="172" depart="50.02" from="B2A2" to="bottom0A0.80.00" type="passenger"/>
    <trip id="173" depart="50.23" from="B2B3" to="D2D3" type="passenger"/>
    <trip id="174" depart="50.66" from="D1C1" to="C3D3.80.00" type="passenger"/>
    <trip id="175" depart="50.67" from="right1E1.80.00" to="B4A4" type="passenger"/>
    <trip id="176" depart="51.28" from="A2B2" to="D1E1.80.00" type="passenger"/>
    <trip id="177" depart="51.28" from="B0C0.80.00" to="D3D2" type="passenger"/>
    <trip id="178" depart="51.38" from="left4A4" to="E3right3" type="passenger"/>
    <trip id="179" depart="51.89" from="B3A3.80.00" to="D2D1" type="passenger"/>
    <trip id="180" depart="52.06" from="C3C4" to="E4D4.80.00" type="passenger"/>
    <trip id="181" depart="52.12" from="B0B1" to="E2E3" type="passenger"/>
    <trip id="182" depart="52.22" from="B2B3.80.00" to="bottom1B0.80.00" type="passenger"/>
    <trip id="183" depart="53.27" from="A0A1" to="E4E3" type="passenger"/>
    <trip id="184" depart="53.28" from="D0C0" to="E1E2.80.00" type="passenger"/>
    <trip id="185" depart="53.50" from="D3D4" to="B0bottom1" type="passenger"/>
    <trip id="186" depart="54.02" from="D2D1.80.00" to="C2C3" type="passenger"/>
    <trip id="187" depart="54.50" from="E4E3" to="E3E2" type="passenger"/>
    <trip id="188" depart="54.74" from="D2D1.80.00" to="A0A1" type="passenger"/>
    <trip id="189" depart="55.54" from="E2E1.80.00" to="D0bottom3" type="passenger"/>
    <trip id="190" depart="55.56" from="C4C3" to="E0E1.80.00" type="passenger"/>
    <trip id="191" depart="55.74" from="A1A0.80.00" to="D1D2" type="passenger"/>
    <trip id="192" depart="55.76" from="D2C2.80.00" to="D4top3" type="passenger"/>
    <trip id="193" depart="55.86" from="C4C3" to="C1D1" type="passenger"/>
    <trip id="194" depart="56.25" from="A0B0" to="A4A3.80.00" type="passenger"/>
    <trip id="195" depart="56.46" from="left3A3.80.00" to="A4A3" type="passenger"/>
    <trip id="196" depart="56.70" from="A2A3.80.00" to="C1B1.80.00" type="passenger"/>
    <trip id="197" depart="56.88" from="E2E3" to="B3C3.80.00" type="passenger"/>
    <trip id="198" depart="57.18" from="D4D3" to="D2D3.80.00" type="passenger"/>
    <trip id="199" depart="57.27" from="B2A2.80.00" to="E4D4.80.00" type="passenger"/>
    <trip id="200" depart="57.30" from="C4B4.80.00" to="A4left4" type="passenger"/>
    <trip id="201" depart="57.31" from="D0E0" to="B1A1.80.00" type="passenger"/>
    <trip id="202" depart="57.65" from="B1B0.80.00" to="D0E0" type="passenger"/>
    <trip id="203" depart="58.04" from="A1B1" to="E1E2.80.00" type="passenger"/>
    <trip id="204" depart="58.94" from="D0E0.80.00" to="C0B0.80.00" type="passenger"/>
    <trip id="205" depart="59.61" from="A4B4.80.00" to="E2E1.80.00" type="passenger"/>
    <trip id="206" depart="59.67" from="B3A3.80.00" to="A3A2.80.00" type="passenger"/>
    <trip id="207" depart="60.11" from="B0A0.80.00" to="A4A3.80.00" type="passenger"/>
    <trip id="208" depart="60.44" from="top2C4.80.00" to="A4A3" type="passenger"/>
    <trip id="209" depart="60.70" from="D1E1.80.00" to="C3C4" type="passenger"/>
    <trip id="210" depart="60.77" from="C1C2.80.00" to="A4top0" type="passenger"/>
    <trip id="211" depart="60.78" from="B2B3.80.00" to="A3left3" type="passenger"/>
    <trip id="212" depart="61.00" from="E2D2" to="A1A0.80.00" type="passenger"/>
    <trip id="213" depart="61.29" from="D1D0" to="E1E0.80.00" type="passenger"/>
    <trip id="214" depart="61.45" from="B0B1" to="left0A0.80.00" type="passenger"/>
    <trip id="215" depart="61.46" from="C0B0" to="B1B2.80.00" type="passenger"/>
    <trip id="216" depart="61.88" from="D0D1.80.00" to="D2E2.80.00" type="passenger"/>
    <trip id="217" depart="62.13" from="D0C0" to="D3C3.80.00" type="passenger"/>
    <trip id="218" depart="62.48" from="E4E3.80.00" to="E0bottom4" type="passenger"/>
    <trip id="219" depart="62.64" from="C4B4.80.00" to="C1D1" type="passenger"/>
    <trip id="220" depart="62.90" from="B3B2" to="C2B2" type="passenger"/>
    <trip id="221" depart="63.06" from="B4C4.80.00" to="A4top0" type="passenger"/>
    <trip id="222" depart="63.10" from="B0B1" to="D1D2.80.00" type="passenger"/>
    <trip id="223" depart="63.29" from="bottom1B0" to="D4D3" type="passenger"/>
    <trip id="224" depart="63.85" from="E3E2" to="D1D0" type="passenger"/>
    <trip id="225" depart="65.50" from="E0E1" to="A4top0" type="passenger"/>
    <trip id="226" depart="65.91" from="C4B4.80.00" to="bottom1B0.80.00" type="passenger"/>
    <trip id="227" depart="66.02" from="B1C1.80.00" to="C3C4.80.00" type="passenger"/>
    <trip id="228" depart="66.14" from="C0D0" to="B1B2" type="passenger"/>
    <trip id="229" depart="66.43" from="top1B4" to="B3B2.80.00" type="passenger"/>
    <trip id="230" depart="66.78" from="C2B2.80.00" to="A3A4.80.00" type="passenger"/>
    <trip id="231" depart="66.85" from="B4C4.80.00" to="C2C1.80.00" type="passenger"/>
    <trip id="232" depart="67.39" from="C3C4.80.00" to="D4D3.80.00" type="passenger"/>
    <trip id="233" depart="67.78" from="A0B0" to="E2right2" type="passenger"/>
    <trip id="234" depart="67.88" from="C1B1" to="B0C0.80.00" type="passenger"/>
    <trip id="235" depart="67.96" from="right4E4.80.00" to="right2E2.80.00" type="passenger"/>
    <trip id="236" depart="68.26" from="B0A0" to="B4B3" type="passenger"/>
    <trip id="237" depart="68.46" from="left4A4" to="C2C1" type="passenger"/>
    <trip id="238" depart="68.50" from="C3C4" to="E4D4" type="passenger"/>
    <trip id="239" depart="68.53" from="A1A2" to="C3D3" type="passenger"/>
    <trip id="240" depart="68.82" from="C2C1" to="C2C3.80.00" type="passenger"/>
    <trip id="241" depart="69.04" from="E2D2" to="E4E3" type="passenger"/>
    <trip id="242" depart="69.30" from="right2E2.80.00" to="E2E3.80.00" type="passenger"/>
    <trip id="243" depart="69.70" from="top1B4" to="E1E0.80.00" type="passenger"/>
    <trip id="244" depart="69.82" from="right4E4" to="E2D2.80.00" type="passenger"/>
    <trip id="245" depart="69.82" from="C1C0" to="A1A2" type="passenger"/>
    <trip id="246" depart="70.47" from="right1E1" to="E2D2.80.00" type="passenger"/>
    <trip id="247" depart="70.64" from="B4C4.80.00" to="B1B2" type="passenger"/>
    <trip id="248" depart="71.34" from="C3D3" to="C1B1" type="passenger"/>
    <trip id="249" depart="71.46" from="C3C4.80.00" to="D3E3" type="passenger"/>
    <trip id="250" depart="71.74" from="D3D2" to="C0bottom2" type="passenger"/>
    <trip id="251" depart="72.05" from="right2E2" to="E0D0" type="passenger"/>
    <trip id="252" depart="72.06" from="B1C1" to="D0E0" type="passenger"/>
    <trip id="253" depart="72.08" from="B4C4.80.00" to="D4E4" type="passenger"/>
    <trip id="254" depart="72.36" from="top1B4.80.00" to="right4E4.80.00" type="passenger"/>
    <trip id="255" depart="72.98" from="B0A0.80.00" to="C2C3" type="passenger"/>
    <trip id="256" depart="73.46" from="D3C3.80.00" to="E1D1.80.00" type="passenger"/>
    <trip id="257" depart="74.13" from="D1E1.80.00" to="B4top1" type="passenger"/>
    <trip id="258" depart="74.27" from="B2C2.80.00" to="A1B1.80.00" type="passenger"/>
    <trip id="259" depart="74.48" from="E4D4" to="C3B3.80.00" type="passenger"/>
    <trip id="260" depart="75.17" from="E1E0" to="D1D2.80.00" type="passenger"/>
    <trip id="261" depart="75.22" from="B1B2.80.00" to="D2E2" type="passenger"/>
    <trip id="262" depart="75.97" from="A1A0.80.00" to="top3D4.80.00" type="passenger"/>
    <trip id="263" depart="75.99" from="E2D2" to="D4D3" type="passenger"/>
    <trip id="264" depart="76.01" from="B3C3.80.00" to="E0D0" type="passenger"/>
    <trip id="265" depart="76.22" from="A3A2.80.00" to="B4A4" type="passenger"/>
    <trip id="266" depart="76.27" from="D0C0" to="D1D2" type="passenger"/>
    <trip id="267" depart="76.74" from="C0D0.80.00" to="left3A3.80.00" type="passenger"/>
    <trip id="268" depart="77.36" from="C1C2.80.00" to="E3D3" type="passenger"/>
    <trip id="269" depart="77.53" from="top4E4" to="left2A2.80.00" type="passenger"/>
    <trip id="270" depart="77.62" from="C2D2" to="A1A2" type="passenger"/>
    <trip id="271" depart="77.74" from="bottom4E0" to="A1A2.80.00" type="passenger"/>
    <trip id="272" depart="77.77" from="A3A4.80.00" to="E0E1" type="passenger"/>
    <trip id="273" depart="77.91" from="D2D1.80.00" to="D1D0.80.00" type="passenger"/>
    <trip id="274" depart="78.16" from="C0D0" to="A2B2.80.00" type="passenger"/>
    <trip id="275" depart="78.58" from="B2B3" to="B0B1.80.00" type="passenger"/>
    <trip id="276" depart="79.02" from="E3E4" to="A4B4.80.00" type="passenger"/>
    <trip id="277" depart="79.13" from="top4E4.80.00" to="B4B3.80.00" type="passenger"/>
    <trip id="278" depart="80.38" from="E2E3" to="C4B4" type="passenger"/>
    <trip id="279" depart="80.70" from="B0B1.80.00" to="E4right4" type="passenger"/>
    <trip id="280" depart="80.71" from="B0B1" to="D1D0.80.00" type="passenger"/>
    <trip id="281" depart="80.84" from="D0D1.80.00" to="B2C2.80.00" type="passenger"/>
    <trip id="282" depart="82.02" from="A2A3.80.00" to="E3E2" type="passenger"/>
    <trip id="283" depart="82.03" from="B3A3.80.00" to="A0bottom0" type="passenger"/>
    <trip id="284" depart="82.10" from="B3C3.80.00" to="A2A1" type="passenger"/>
    <trip id="285" depart="82.19" from="A2B2.80.00" to="B3B2" type="passenger"/>
    <trip id="286" depart="82.25" from="D4D3.80.00" to="C3D3" type="passenger"/>
    <trip id="287" depart="82.69" from="D1D2" to="left3A3.80.00" type="passenger"/>
    <trip id="288" depart="82.83" from="C1C0" to="A1A0.80.00" type="passenger"/>
    <trip id="289" depart="82.88" from="B1C1.80.00" to="E4D4" type="passenger"/>
    <trip id="290" depart="83.42" from="A4B4.80.00" to="D4top3" type="passenger"/>
    <trip id="291" depart="83.64" from="E2E1.80.00" to="B3B2" type="passenger"/>
    <trip id="292" depart="83.94" from="bottom4E0.80.00" to="C3B3.80.00" type="passenger"/>
    <trip id="293" depart="84.00" from="B2B1.80.00" to="B1A1" type="passenger"/>
    <trip id="294" depart="84.12" from="A3B3.80.00" to="A3left3" type="passenger"/>
    <trip id="295" depart="84.60" from="bottom4E0.80.00" to="C3B3.80.00" type="passenger"/>
    <trip id="296" depart="84.69" from="D4D3" to="D4E4.80.00" type="passenger"/>
    <trip id="297" depart="84.76" from="D4D3" to="B2A2.80.00" type="passenger"/>
    <trip id="298" depart="84.98" from="D2D3.80.00" to="D0D1" type="passenger"/>
    <trip id="299" depart="86.18" from="A1A2" to="E2E3" type="passenger"/>
    <trip id="300" depart="86.26" from="top1B4.80.00" to="B4B3.80.00" type="passenger"/>
    <trip id="301" depart="86.32" from="C2D2" to="D4C4" type="passenger"/>
    <trip id="302" depart="86.41" from="B3C3.80.00" to="B1B2.80.00" type="passenger"/>
    <trip id="303" depart="86.80" from="B0C0" to="B4top1" type="passenger"/>
    <trip id="304" depart="86.82" from="B3B4" to="A1A2.80.00" type="passenger"/>
    <trip id="305" depart="87.39" from="D2D1.80.00" to="B3B4" type="passenger"/>
    <trip id="306" depart="87.42" from="left1A1.80.00" to="C3B3.80.00" type="passenger"/>
    <trip id="307" depart="87.63" from="B1A1.80.00" to="D2D1" type="passenger"/>
    <trip id="308" depart="87.89" from="B3C3" to="B0A0.80.00" type="passenger"/>
    <trip id="309" depart="87.94" from="B3C3.80.00" to="bottom1B0.80.00" type="passenger"/>
    <trip id="310" depart="88.58" from="D3D2.80.00" to="C3C2.80.00" type="passenger"/>
    <trip id="311" depart="88.74" from="C4D4" to="A0A1" type="passenger"/>
    <trip id="312" depart="88.77" from="C4B4.80.00" to="B0bottom1" type="passenger"/>
    <trip id="313" depart="89.10" from="D4D3.80.00" to="top4E4.80.00" type="passenger"/>
    <trip id="314" depart="89.89" from="B1A1.80.00" to="B0bottom1" type="passenger"/>
    <trip id="315" depart="90.03" from="A1A0.80.00" to="E2D2" type="passenger"/>
    <trip id="316" depart="90.10" from="bottom2C0.80.00" to="D0D1.80.00" type="passenger"/>
    <trip id="317" depart="90.89" from="D0D1" to="C0bottom2" type="passenger"/>
    <trip id="318" depart="91.27" from="left0A0.80.00" to="C2C3" type="passenger"/>
    <trip id="319" depart="91.45" from="right3E3" to="C1C2.80.00" type="passenger"/>
    <trip id="320" depart="91.77" from="top1B4" to="C2C3.80.00" type="passenger"/>
    <trip id="321" depart="92.50" from="E4D4.80.00" to="C0B0" type="passenger"/>
    <trip id="322" depart="92.63" from="C1D1.80.00" to="D4E4.80.00" type="passenger"/>
    <trip id="323" depart="93.82" from="top1B4.80.00" to="left0A0.80.00" type="passenger"/>
    <trip id="324" depart="93.87" from="E0E1.80.00" to="B3A3.80.00" type="passenger"/>
    <trip id="325" depart="94.14" from="C2C1.80.00" to="B2B1" type="passenger"/>
    <trip id="326" depart="95.06" from="C4D4" to="B1A1.80.00" type="passenger"/>
    <trip id="327" depart="95.30" from="B2C2.80.00" to="A0A1" type="passenger"/>
    <trip id="328" depart="95.94" from="B2B1" to="B4C4" type="passenger"/>
    <trip id="329" depart="96.49" from="A1A2.80.00" to="D0C0" type="passenger"/>
    <trip id="330" depart="96.70" from="B2A2.80.00" to="B4A4.80.00" type="passenger"/>
    <trip id="331" depart="96.79" from="E2E1.80.00" to="A4top0" type="passenger"/>
    <trip id="332" depart="96.91" from="B1A1" to="E3E2" type="passenger"/>
    <trip id="333" depart="97.11" from="C3D3.80.00" to="E3D3.80.00" type="passenger"/>
    <trip id="334" depart="97.24" from="C0C1" to="bottom0A0.80.00" type="passenger"/>
    <trip id="335" depart="97.45" from="B3C3.80.00" to="D2D1" type="passenger"/>
    <trip id="336" depart="97.49" from="B4B3.80.00" to="D2E2" type="passenger"/>
    <trip id="337" depart="98.55" from="D1E1" to="B3B4" type="passenger"/>
    <trip id="338" depart="98.70" from="right3E3" to="left3A3.80.00" type="passenger"/>
    <trip id="339" depart="98.80" from="B0B1.80.00" to="D1D0" type="passenger"/>
    <trip id="340" depart="98.81" from="left1A1" to="E4top4" type="passenger"/>
    <trip id="341" depart="98.95" from="bottom2C0" to="top4E4.80.00" type="passenger"/>
    <trip id="342" depart="98.96" from="B0C0" to="bottom3D0.80.00" type="passenger"/>
    <trip id="343" depart="99.08" from="D3D4.80.00" to="B4B3.80.00" type="passenger"/>
    <trip id="344" depart="99.51" from="bottom3D0.80.00" to="C3D3" type="passenger"/>
    <trip id="345" depart="100.26" from="E3E4.80.00" to="C3D3.80.00" type="passenger"/>
    <trip id="346" depart="100.34" from="C2D2" to="C4B4.80.00" type="passenger"/>
    <trip id="347" depart="100.36" from="bottom4E0.80.00" to="bottom4E0.80.00" type="passenger"/>
    <trip id="348" depart="100.63" from="E2D2" to="B2C2" type="passenger"/>
    <trip id="349" depart="100.93" from="C2C3.80.00" to="C4B4.80.00" type="passenger"/>
    <trip id="350" depart="101.08" from="B2C2.80.00" to="A2B2" type="passenger"/>
    <trip id="351" depart="101.27" from="A4B4" to="B0A0.80.00" type="passenger"/>
    <trip id="352" depart="101.34" from="D4D3.80.00" to="A3A2" type="passenger"/>