<?xml version="1.0" encoding="UTF-8"?>

<!-- generated on 2023-04-26 16:56:56.669340 by randomTrips.py UNKNOWN
<configuration>
    <begin value="0"/>
    <end value="900"/>
    <insertion-rate value="8000.0"/>
    <net-file value="/home/franky3er/Documents/code/HieraGLight/scenarios/grid/1x1-500m/train/55-scenario/network.net.xml"/>
    <random value="True"/>
    <random-depart value="True"/>
    <route-file value="/home/franky3er/Documents/code/HieraGLight/scenarios/grid/1x1-500m/train/55-scenario/routes.rou.xml"/>
    <seed value="55"/>
    <output-trip-file value="/home/franky3er/Documents/code/HieraGLight/scenarios/grid/1x1-500m/train/55-scenario/trips.trips.xml"/>
    <vehicle-class value="passenger"/>
</configuration>
-->

<!-- generated on 2023-04-26 16:56:56 by Eclipse SUMO duarouter Version 1.16.0
<configuration xmlns:xsi="http://www.w3.org/2001/XMLSchema-instance" xsi:noNamespaceSchemaLocation="http://sumo.dlr.de/xsd/duarouterConfiguration.xsd">

    <input>
        <net-file value="/home/franky3er/Documents/code/HieraGLight/scenarios/grid/1x1-500m/train/55-scenario/network.net.xml"/>
        <route-files value="/home/franky3er/Documents/code/HieraGLight/scenarios/grid/1x1-500m/train/55-scenario/trips.trips.xml"/>
    </input>

    <output>
        <output-file value="/home/franky3er/Documents/code/HieraGLight/scenarios/grid/1x1-500m/train/55-scenario/routes.rou.xml"/>
        <alternatives-output value="NUL"/>
    </output>

    <time>
        <begin value="0"/>
        <end value="900"/>
    </time>

    <report>
        <no-warnings value="true"/>
        <ignore-errors value="true"/>
        <no-step-log value="true"/>
    </report>

</configuration>
-->

<routes xmlns:xsi="http://www.w3.org/2001/XMLSchema-instance" xsi:noNamespaceSchemaLocation="http://sumo.dlr.de/xsd/routes_file.xsd">
    <vType id="passenger" vClass="passenger"/>
    <vehicle id="2" type="passenger" depart="0.30">
        <route edges="top0A0 top0A0.250.00"/>
    </vehicle>
    <vehicle id="3" type="passenger" depart="1.20">
        <route edges="right0A0 right0A0.250.00"/>
    </vehicle>
    <vehicle id="8" type="passenger" depart="3.75">
        <route edges="bottom0A0.250.00 A0left0"/>
    </vehicle>
    <vehicle id="10" type="passenger" depart="4.40">
        <route edges="right0A0 right0A0.250.00 A0top0"/>
    </vehicle>
    <vehicle id="11" type="passenger" depart="6.50">
        <route edges="top0A0.250.00 A0left0"/>
    </vehicle>
    <vehicle id="14" type="passenger" depart="7.90">
        <route edges="left0A0.250.00 A0top0"/>
    </vehicle>
    <vehicle id="16" type="passenger" depart="8.25">
        <route edges="left0A0.250.00 A0bottom0"/>
    </vehicle>
    <vehicle id="21" type="passenger" depart="9.80">
        <route edges="right0A0 right0A0.250.00"/>
    </vehicle>
    <vehicle id="23" type="passenger" depart="10.65">
        <route edges="bottom0A0.250.00 A0left0"/>
    </vehicle>
    <vehicle id="24" type="passenger" depart="11.10">
        <route edges="left0A0 left0A0.250.00 A0top0"/>
    </vehicle>
    <vehicle id="30" type="passenger" depart="13.40">
        <route edges="left0A0.250.00 A0right0"/>
    </vehicle>
    <vehicle id="32" type="passenger" depart="13.80">
        <route edges="top0A0 top0A0.250.00 A0right0"/>
    </vehicle>
    <vehicle id="35" type="passenger" depart="15.15">
        <route edges="bottom0A0 bottom0A0.250.00 A0right0"/>
    </vehicle>
    <vehicle id="36" type="passenger" depart="15.45">
        <route edges="right0A0.250.00 A0left0"/>
    </vehicle>
    <vehicle id="37" type="passenger" depart="15.50">
        <route edges="top0A0.250.00"/>
    </vehicle>
    <vehicle id="39" type="passenger" depart="16.65">
        <route edges="top0A0 top0A0.250.00"/>
    </vehicle>
    <vehicle id="44" type="passenger" depart="21.00">
        <route edges="left0A0.250.00 A0bottom0"/>
    </vehicle>
    <vehicle id="45" type="passenger" depart="21.10">
        <route edges="bottom0A0.250.00"/>
    </vehicle>
    <vehicle id="51" type="passenger" depart="25.50">
        <route edges="top0A0.250.00"/>
    </vehicle>
    <vehicle id="52" type="passenger" depart="26.30">
        <route edges="bottom0A0.250.00 A0top0"/>
    </vehicle>
    <vehicle id="53" type="passenger" depart="26.85">
        <route edges="left0A0.250.00 A0bottom0"/>
    </vehicle>
    <vehicle id="56" type="passenger" depart="27.85">
        <route edges="left0A0 left0A0.250.00 A0bottom0"/>
    </vehicle>
    <vehicle id="58" type="passenger" depart="28.60">
        <route edges="left0A0 left0A0.250.00 A0right0"/>
    </vehicle>
    <vehicle id="59" type="passenger" depart="28.85">
        <route edges="bottom0A0 bottom0A0.250.00 A0right0"/>
    </vehicle>
    <vehicle id="60" type="passenger" depart="29.30">
        <route edges="top0A0.250.00"/>
    </vehicle>
    <vehicle id="63" type="passenger" depart="30.45">
        <route edges="left0A0.250.00"/>
    </vehicle>
    <vehicle id="65" type="passenger" depart="33.85">
        <route edges="left0A0.250.00 A0bottom0"/>
    </vehicle>
    <vehicle id="66" type="passenger" depart="33.95">
        <route edges="left0A0 left0A0.250.00"/>
    </vehicle>
    <vehicle id="69" type="passenger" depart="34.50">
        <route edges="bottom0A0.250.00 A0right0"/>
    </vehicle>
    <vehicle id="70" type="passenger" depart="35.30">
        <route edges="left0A0 left0A0.250.00"/>
    </vehicle>
    <vehicle id="71" type="passenger" depart="35.35">
        <route edges="left0A0.250.00 A0top0"/>
    </vehicle>
    <vehicle id="72" type="passenger" depart="35.45">
        <route edges="top0A0.250.00 A0right0"/>
    </vehicle>
    <vehicle id="73" type="passenger" depart="36.15">
        <route edges="top0A0 top0A0.250.00 A0bottom0"/>
    </vehicle>
    <vehicle id="74" type="passenger" depart="36.60">
        <route edges="left0A0.250.00 A0right0"/>
    </vehicle>
    <vehicle id="75" type="passenger" depart="36.80">
        <route edges="left0A0 left0A0.250.00 A0right0"/>
    </vehicle>
    <vehicle id="78" type="passenger" depart="38.30">
        <route edges="right0A0 right0A0.250.00 A0bottom0"/>
    </vehicle>
    <vehicle id="80" type="passenger" depart="38.50">
        <route edges="left0A0.250.00 A0top0"/>
    </vehicle>
    <vehicle id="81" type="passenger" depart="39.25">
        <route edges="right0A0.250.00 A0left0"/>
    </vehicle>
    <vehicle id="84" type="passenger" depart="41.35">
        <route edges="left0A0 left0A0.250.00 A0right0"/>
    </vehicle>
    <vehicle id="86" type="passenger" depart="41.65">
        <route edges="top0A0.250.00 A0right0"/>
    </vehicle>
    <vehicle id="89" type="passenger" depart="42.35">
        <route edges="left0A0 left0A0.250.00 A0top0"/>
    </vehicle>
    <vehicle id="92" type="passenger" depart="43.95">
        <route edges="right0A0 right0A0.250.00 A0left0"/>
    </vehicle>
    <vehicle id="93" type="passenger" depart="47.15">
        <route edges="top0A0 top0A0.250.00 A0bottom0"/>
    </vehicle>
    <vehicle id="95" type="passenger" depart="48.00">
        <route edges="top0A0 top0A0.250.00 A0right0"/>
    </vehicle>
    <vehicle id="96" type="passenger" depart="48.35">
        <route edges="bottom0A0 bottom0A0.250.00 A0right0"/>
    </vehicle>
    <vehicle id="97" type="passenger" depart="49.15">
        <route edges="right0A0.250.00 A0bottom0"/>
    </vehicle>
    <vehicle id="101" type="passenger" depart="50.60">
        <route edges="left0A0 left0A0.250.00 A0top0"/>
    </vehicle>
    <vehicle id="103" type="passenger" depart="51.00">
        <route edges="bottom0A0 bottom0A0.250.00 A0right0"/>
    </vehicle>
    <vehicle id="104" type="passenger" depart="51.30">
        <route edges="left0A0.250.00"/>
    </vehicle>
    <vehicle id="106" type="passenger" depart="51.55">
        <route edges="right0A0 right0A0.250.00 A0left0"/>
    </vehicle>
    <vehicle id="111" type="passenger" depart="52.80">
        <route edges="left0A0.250.00 A0top0"/>
    </vehicle>
    <vehicle id="112" type="passenger" depart="53.60">
        <route edges="top0A0.250.00 A0bottom0"/>
    </vehicle>
    <vehicle id="116" type="passenger" depart="55.35">
        <route edges="right0A0 right0A0.250.00"/>
    </vehicle>
    <vehicle id="117" type="passenger" depart="55.35">
        <route edges="left0A0.250.00 A0right0"/>
    </vehicle>
    <vehicle id="123" type="passenger" depart="56.65">
        <route edges="left0A0.250.00 A0right0"/>
    </vehicle>
    <vehicle id="124" type="passenger" depart="56.80">
        <route edges="right0A0 right0A0.250.00 A0left0"/>
    </vehicle>
    <vehicle id="125" type="passenger" depart="57.40">
        <route edges="left0A0.250.00 A0right0"/>
    </vehicle>
    <vehicle id="130" type="passenger" depart="59.90">
        <route edges="bottom0A0 bottom0A0.250.00"/>
    </vehicle>
    <vehicle id="132" type="passenger" depart="61.20">
        <route edges="top0A0 top0A0.250.00"/>
    </vehicle>
    <vehicle id="134" type="passenger" depart="62.00">
        <route edges="top0A0 top0A0.250.00 A0left0"/>
    </vehicle>
    <vehicle id="135" type="passenger" depart="62.35">
        <route edges="left0A0.250.00"/>
    </vehicle>
    <vehicle id="136" type="passenger" depart="64.05">
        <route edges="top0A0.250.00 A0left0"/>
    </vehicle>
    <vehicle id="142" type="passenger" depart="66.75">
        <route edges="right0A0.250.00"/>
    </vehicle>
    <vehicle id="145" type="passenger" depart="67.60">
        <route edges="left0A0 left0A0.250.00 A0bottom0"/>
    </vehicle>
    <vehicle id="146" type="passenger" depart="68.40">
        <route edges="bottom0A0 bottom0A0.250.00 A0left0"/>
    </vehicle>
    <vehicle id="148" type="passenger" depart="69.45">
        <route edges="right0A0 right0A0.250.00 A0bottom0"/>
    </vehicle>
    <vehicle id="152" type="passenger" depart="69.75">
        <route edges="top0A0.250.00 A0left0"/>
    </vehicle>
    <vehicle id="154" type="passenger" depart="70.45">
        <route edges="left0A0.250.00 A0top0"/>
    </vehicle>
    <vehicle id="159" type="passenger" depart="73.65">
        <route edges="left0A0.250.00 A0bottom0"/>
    </vehicle>
    <vehicle id="160" type="passenger" depart="74.65">
        <route edges="left0A0 left0A0.250.00 A0top0"/>
    </vehicle>
    <vehicle id="161" type="passenger" depart="74.85">
        <route edges="right0A0.250.00 A0top0"/>
    </vehicle>
    <vehicle id="162" type="passenger" depart="74.90">
        <route edges="left0A0 left0A0.250.00 A0bottom0"/>
    </vehicle>
    <vehicle id="163" type="passenger" depart="74.95">
        <route edges="right0A0 right0A0.250.00"/>
    </vehicle>
    <vehicle id="164" type="passenger" depart="75.30">
        <route edges="top0A0 top0A0.250.00 A0right0"/>
    </vehicle>
    <vehicle id="167" type="passenger" depart="77.10">
        <route edges="right0A0 right0A0.250.00"/>
    </vehicle>
    <vehicle id="170" type="passenger" depart="78.15">
        <route edges="right0A0 right0A0.250.00"/>
    </vehicle>
    <vehicle id="172" type="passenger" depart="78.45">
        <route edges="left0A0 left0A0.250.00 A0bottom0"/>
    </vehicle>
    <vehicle id="176" type="passenger" depart="80.50">
        <route edges="top0A0 top0A0.250.00 A0bottom0"/>
    </vehicle>
    <vehicle id="177" type="passenger" depart="80.60">
        <route edges="bottom0A0 bottom0A0.250.00 A0left0"/>
    </vehicle>
    <vehicle id="180" type="passenger" depart="82.10">
        <route edges="bottom0A0 bottom0A0.250.00 A0top0"/>
    </vehicle>
    <vehicle id="181" type="passenger" depart="82.20">
        <route edges="left0A0.250.00"/>
    </vehicle>
    <vehicle id="182" type="passenger" depart="82.65">
        <route edges="bottom0A0.250.00 A0left0"/>
    </vehicle>
    <vehicle id="184" type="passenger" depart="84.40">
        <route edges="top0A0 top0A0.250.00 A0left0"/>
    </vehicle>
    <vehicle id="186" type="passenger" depart="85.70">
        <route edges="left0A0.250.00 A0bottom0"/>
    </vehicle>
    <vehicle id="187" type="passenger" depart="86.15">
        <route edges="right0A0 right0A0.250.00 A0top0"/>
    </vehicle>
    <vehicle id="188" type="passenger" depart="86.30">
        <route edges="top0A0 top0A0.250.00 A0left0"/>
    </vehicle>
    <vehicle id="189" type="passenger" depart="87.10">
        <route edges="bottom0A0 bottom0A0.250.00"/>
    </vehicle>
    <vehicle id="191" type="passenger" depart="88.45">
        <route edges="top0A0.250.00 A0left0"/>
    </vehicle>
    <vehicle id="193" type="passenger" depart="89.20">
        <route edges="top0A0 top0A0.250.00"/>
    </vehicle>
    <vehicle id="197" type="passenger" depart="92.70">
        <route edges="left0A0 left0A0.250.00 A0right0"/>
    </vehicle>
    <vehicle id="199" type="passenger" depart="93.00">
        <route edges="right0A0.250.00 A0bottom0"/>
    </vehicle>
    <vehicle id="200" type="passenger" depart="93.20">
        <route edges="top0A0 top0A0.250.00 A0right0"/>
    </vehicle>
    <vehicle id="203" type="passenger" depart="94.30">
        <route edges="top0A0.250.00 A0right0"/>
    </vehicle>
    <vehicle id="204" type="passenger" depart="94.65">
        <route edges="bottom0A0 bottom0A0.250.00 A0right0"/>
    </vehicle>
    <vehicle id="205" type="passenger" depart="95.00">
        <route edges="top0A0 top0A0.250.00 A0left0"/>
    </vehicle>
    <vehicle id="207" type="passenger" depart="95.60">
        <route edges="right0A0.250.00"/>
    </vehicle>
    <vehicle id="210" type="passenger" depart="97.10">
        <route edges="top0A0 top0A0.250.00 A0left0"/>
    </vehicle>
    <vehicle id="213" type="passenger" depart="98.05">
        <route edges="left0A0 left0A0.250.00 A0bottom0"/>
    </vehicle>
    <vehicle id="215" type="passenger" depart="100.95">
        <route edges="right0A0 right0A0.250.00 A0bottom0"/>
    </vehicle>
    <vehicle id="219" type="passenger" depart="102.95">
        <route edges="bottom0A0 bottom0A0.250.00"/>
    </vehicle>
    <vehicle id="221" type="passenger" depart="103.95">
        <route edges="left0A0 left0A0.250.00 A0right0"/>
    </vehicle>
    <vehicle id="222" type="passenger" depart="103.95">
        <route edges="left0A0.250.00 A0top0"/>
    </vehicle>
    <vehicle id="223" type="passenger" depart="104.05">
        <route edges="top0A0.250.00 A0bottom0"/>
    </vehicle>
    <vehicle id="225" type="passenger" depart="104.65">
        <route edges="left0A0.250.00 A0top0"/>
    </vehicle>
    <vehicle id="227" type="passenger" depart="105.45">
        <route edges="bottom0A0.250.00"/>
    </vehicle>
    <vehicle id="228" type="passenger" depart="105.80">
        <route edges="top0A0.250.00 A0left0"/>
    </vehicle>
    <vehicle id="232" type="passenger" depart="107.15">
        <route edges="top0A0 top0A0.250.00 A0right0"/>
    </vehicle>
    <vehicle id="235" type="passenger" depart="108.40">
        <route edges="left0A0 left0A0.250.00 A0right0"/>
    </vehicle>
    <vehicle id="237" type="passenger" depart="110.05">
        <route edges="left0A0 left0A0.250.00 A0top0"/>
    </vehicle>
    <vehicle id="242" type="passenger" depart="111.60">
        <route edges="right0A0 right0A0.250.00"/>
    </vehicle>
    <vehicle id="245" type="passenger" depart="112.40">
        <route edges="left0A0.250.00 A0bottom0"/>
    </vehicle>
    <vehicle id="249" type="passenger" depart="114.00">
        <route edges="bottom0A0.250.00 A0right0"/>
    </vehicle>
    <vehicle id="250" type="passenger" depart="114.55">
        <route edges="top0A0 top0A0.250.00 A0bottom0"/>
    </vehicle>
    <vehicle id="252" type="passenger" depart="115.30">
        <route edges="bottom0A0 bottom0A0.250.00 A0left0"/>
    </vehicle>
    <vehicle id="254" type="passenger" depart="115.45">
        <route edges="right0A0 right0A0.250.00"/>
    </vehicle>
    <vehicle id="255" type="passenger" depart="116.20">
        <route edges="right0A0.250.00 A0top0"/>
    </vehicle>
    <vehicle id="259" type="passenger" depart="116.80">
        <route edges="left0A0.250.00 A0top0"/>
    </vehicle>
    <vehicle id="260" type="passenger" depart="116.90">
        <route edges="bottom0A0.250.00 A0right0"/>
    </vehicle>
    <vehicle id="261" type="passenger" depart="118.20">
        <route edges="top0A0 top0A0.250.00 A0right0"/>
    </vehicle>
    <vehicle id="263" type="passenger" depart="119.30">
        <route edges="right0A0.250.00 A0bottom0"/>
    </vehicle>
    <vehicle id="267" type="passenger" depart="120.75">
        <route edges="bottom0A0.250.00 A0right0"/>
    </vehicle>
    <vehicle id="268" type="passenger" depart="121.30">
        <route edges="right0A0 right0A0.250.00 A0top0"/>
    </vehicle>
    <vehicle id="269" type="passenger" depart="123.10">
        <route edges="top0A0.250.00 A0bottom0"/>
    </vehicle>
    <vehicle id="270" type="passenger" depart="123.30">
        <route edges="top0A0 top0A0.250.00 A0right0"/>
    </vehicle>
    <vehicle id="271" type="passenger" depart="123.65">
        <route edges="bottom0A0 bottom0A0.250.00 A0top0"/>
    </vehicle>
    <vehicle id="272" type="passenger" depart="124.15">
        <route edges="top0A0.250.00 A0right0"/>
    </vehicle>
    <vehicle id="275" type="passenger" depart="126.25">
        <route edges="top0A0 top0A0.250.00"/>
    </vehicle>
    <vehicle id="276" type="passenger" depart="126.35">
        <route edges="left0A0 left0A0.250.00 A0bottom0"/>
    </vehicle>
    <vehicle id="277" type="passenger" depart="127.40">
        <route edges="right0A0 right0A0.250.00 A0top0"/>
    </vehicle>
    <vehicle id="278" type="passenger" depart="127.55">
        <route edges="right0A0.250.00"/>
    </vehicle>
    <vehicle id="280" type="passenger" depart="127.80">
        <route edges="left0A0.250.00 A0top0"/>
    </vehicle>
    <vehicle id="281" type="passenger" depart="128.05">
        <route edges="left0A0.250.00"/>
    </vehicle>
    <vehicle id="282" type="passenger" depart="128.50">
        <route edges="left0A0 left0A0.250.00"/>
    </vehicle>
    <vehicle id="283" type="passenger" depart="128.90">
        <route edges="left0A0 left0A0.250.00 A0right0"/>
    </vehicle>
    <vehicle id="284" type="passenger" depart="129.05">
        <route edges="top0A0.250.00"/>
    </vehicle>
    <vehicle id="286" type="passenger" depart="129.80">
        <route edges="right0A0 right0A0.250.00"/>
    </vehicle>
    <vehicle id="288" type="passenger" depart="130.65">
        <route edges="right0A0.250.00 A0left0"/>
    </vehicle>
    <vehicle id="291" type="passenger" depart="131.85">
        <route edges="bottom0A0 bottom0A0.250.00 A0top0"/>
    </vehicle>
    <vehicle id="296" type="passenger" depart="133.70">
        <route edges="left0A0 left0A0.250.00 A0bottom0"/>
    </vehicle>
    <vehicle id="298" type="passenger" depart="134.50">
        <route edges="left0A0.250.00 A0right0"/>
    </vehicle>
    <vehicle id="299" type="passenger" depart="135.35">
        <route edges="top0A0 top0A0.250.00 A0right0"/>
    </vehicle>
    <vehicle id="300" type="passenger" depart="136.10">
        <route edges="right0A0.250.00 A0bottom0"/>
    </vehicle>
    <vehicle id="301" type="passenger" depart="136.60">
        <route edges="left0A0.250.00 A0right0"/>
    </vehicle>
    <vehicle id="302" type="passenger" depart="136.60">
        <route edges="left0A0.250.00 A0top0"/>
    </vehicle>
    <vehicle id="304" type="passenger" depart="138.00">
        <route edges="top0A0 top0A0.250.00 A0bottom0"/>
    </vehicle>
    <vehicle id="306" type="passenger" depart="138.85">
        <route edges="top0A0 top0A0.250.00 A0left0"/>
    </vehicle>
    <vehicle id="309" type="passenger" depart="139.65">
        <route edges="bottom0A0 bottom0A0.250.00 A0left0"/>
    </vehicle>
    <vehicle id="310" type="passenger" depart="139.80">
        <route edges="right0A0.250.00"/>
    </vehicle>
    <vehicle id="311" type="passenger" depart="140.15">
        <route edges="right0A0 right0A0.250.00 A0left0"/>
    </vehicle>
    <vehicle id="316" type="passenger" depart="143.40">
        <route edges="top0A0 top0A0.250.00 A0bottom0"/>
    </vehicle>
    <vehicle id="317" type="passenger" depart="144.85">
        <route edges="top0A0.250.00 A0right0"/>
    </vehicle>
    <vehicle id="320" type="passenger" depart="146.80">
        <route edges="right0A0.250.00 A0top0"/>
    </vehicle>
    <vehicle id="321" type="passenger" depart="147.75">
        <route edges="left0A0.250.00 A0right0"/>
    </vehicle>
    <vehicle id="322" type="passenger" depart="147.95">
        <route edges="left0A0 left0A0.250.00 A0top0"/>
    </vehicle>
    <vehicle id="327" type="passenger" depart="149.15">
        <route edges="left0A0.250.00 A0bottom0"/>
    </vehicle>
    <vehicle id="328" type="passenger" depart="150.55">
        <route edges="right0A0 right0A0.250.00"/>
    </vehicle>
    <vehicle id="331" type="passenger" depart="151.20">
        <route edges="right0A0 right0A0.250.00"/>
    </vehicle>
    <vehicle id="332" type="passenger" depart="151.55">
        <route edges="right0A0 right0A0.250.00 A0left0"/>
    </vehicle>
    <vehicle id="334" type="passenger" depart="152.25">
        <route edges="left0A0.250.00"/>
    </vehicle>
    <vehicle id="335" type="passenger" depart="152.50">
        <route edges="left0A0.250.00 A0right0"/>
    </vehicle>
    <vehicle id="336" type="passenger" depart="152.50">
        <route edges="top0A0 top0A0.250.00 A0bottom0"/>
    </vehicle>
    <vehicle id="337" type="passenger" depart="153.20">
        <route edges="top0A0.250.00 A0left0"/>
    </vehicle>
    <vehicle id="339" type="passenger" depart="155.15">
        <route edges="left0A0.250.00 A0top0"/>
    </vehicle>
    <vehicle id="342" type="passenger" depart="157.50">
        <route edges="top0A0 top0A0.250.00 A0right0"/>
    </vehicle>
    <vehicle id="344" type="passenger" depart="158.20">
        <route edges="left0A0 left0A0.250.00 A0bottom0"/>
    </vehicle>
    <vehicle id="345" type="passenger" depart="158.35">
        <route edges="bottom0A0.250.00 A0right0"/>
    </vehicle>
    <vehicle id="346" type="passenger" depart="159.05">
        <route edges="top0A0 top0A0.250.00 A0right0"/>
    </vehicle>
    <vehicle id="347" type="passenger" depart="159.55">
        <route edges="right0A0.250.00 A0top0"/>
    </vehicle>
    <vehicle id="348" type="passenger" depart="160.30">
        <route edges="top0A0 top0A0.250.00"/>
    </vehicle>
    <vehicle id="349" type="passenger" depart="160.45">
        <route edges="left0A0.250.00"/>
    </vehicle>
    <vehicle id="350" type="passenger" depart="160.50">
        <route edges="top0A0 top0A0.250.00 A0left0"/>
    </vehicle>
    <vehicle id="351" type="passenger" depart="160.55">
        <route edges="left0A0.250.00 A0right0"/>
    </vehicle>
    <vehicle id="352" type="passenger" depart="160.75">
        <route edges="left0A0 left0A0.250.00"/>
    </vehicle>
    <vehicle id="354" type="passenger" depart="161.50">
        <route edges="right0A0 right0A0.250.00 A0left0"/>
    </vehicle>
    <vehicle id="355" type="passenger" depart="162.70">
        <route edges="bottom0A0.250.00 A0top0"/>
    </vehicle>
    <vehicle id="356" type="passenger" depart="163.40">
        <route edges="left0A0.250.00 A0top0"/>
    </vehicle>
    <vehicle id="357" type="passenger" depart="163.60">
        <route edges="left0A0 left0A0.250.00 A0bottom0"/>
    </vehicle>
    <vehicle id="359" type="passenger" depart="164.15">
        <route edges="right0A0.250.00"/>
    </vehicle>
    <vehicle id="360" type="passenger" depart="164.85">
        <route edges="top0A0.250.00 A0right0"/>
    </vehicle>
    <vehicle id="361" type="passenger" depart="166.90">
        <route edges="top0A0.250.00 A0left0"/>
    </vehicle>
    <vehicle id="362" type="passenger" depart="167.55">
        <route edges="right0A0 right0A0.250.00 A0left0"/>
    </vehicle>
    <vehicle id="365" type="passenger" depart="168.35">
        <route edges="left0A0.250.00 A0top0"/>
    </vehicle>
    <vehicle id="368" type="passenger" depart="169.40">
        <route edges="bottom0A0 bottom0A0.250.00 A0top0"/>
    </vehicle>
    <vehicle id="369" type="passenger" depart="169.60">
        <route edges="right0A0.250.00 A0bottom0"/>
    </vehicle>
    <vehicle id="370" type="passenger" depart="169.75">
        <route edges="left0A0 left0A0.250.00 A0right0"/>
    </vehicle>
    <vehicle id="371" type="passenger" depart="170.05">
        <route edges="right0A0 right0A0.250.00 A0top0"/>
    </vehicle>
    <vehicle id="375" type="passenger" depart="173.30">
        <route edges="right0A0 right0A0.250.00 A0top0"/>
    </vehicle>
    <vehicle id="376" type="passenger" depart="173.50">
        <route edges="right0A0.250.00"/>
    </vehicle>
    <vehicle id="378" type="passenger" depart="174.05">
        <route edges="bottom0A0 bottom0A0.250.00"/>
    </vehicle>
    <vehicle id="379" type="passenger" depart="174.45">
        <route edges="top0A0 top0A0.250.00 A0bottom0"/>
    </vehicle>
    <vehicle id="380" type="passenger" depart="175.60">
        <route edges="right0A0.250.00 A0bottom0"/>
    </vehicle>
    <vehicle id="381" type="passenger" depart="176.20">
        <route edges="bottom0A0.250.00 A0left0"/>
    </vehicle>
    <vehicle id="383" type="passenger" depart="177.50">
        <route edges="left0A0.250.00"/>
    </vehicle>
    <vehicle id="385" type="passenger" depart="177.85">
        <route edges="bottom0A0.250.00 A0right0"/>
    </vehicle>
    <vehicle id="387" type="passenger" depart="180.60">
        <route edges="bottom0A0 bottom0A0.250.00 A0left0"/>
    </vehicle>
    <vehicle id="390" type="passenger" depart="181.25">
        <route edges="left0A0 left0A0.250.00 A0bottom0"/>
    </vehicle>
    <vehicle id="395" type="passenger" depart="184.25">
        <route edges="right0A0.250.00"/>
    </vehicle>
    <vehicle id="396" type="passenger" depart="184.70">
        <route edges="top0A0 top0A0.250.00 A0bottom0"/>
    </vehicle>
    <vehicle id="397" type="passenger" depart="184.80">
        <route edges="top0A0 top0A0.250.00 A0left0"/>
    </vehicle>
    <vehicle id="399" type="passenger" depart="185.50">
        <route edges="right0A0.250.00 A0bottom0"/>
    </vehicle>
    <vehicle id="400" type="passenger" depart="186.05">
        <route edges="right0A0 right0A0.250.00 A0left0"/>
    </vehicle>
    <vehicle id="403" type="passenger" depart="186.45">
        <route edges="top0A0 top0A0.250.00 A0bottom0"/>
    </vehicle>
    <vehicle id="405" type="passenger" depart="189.45">
        <route edges="top0A0.250.00 A0left0"/>
    </vehicle>
    <vehicle id="407" type="passenger" depart="189.85">
        <route edges="top0A0 top0A0.250.00 A0bottom0"/>
    </vehicle>
    <vehicle id="410" type="passenger" depart="190.55">
        <route edges="right0A0.250.00"/>
    </vehicle>
    <vehicle id="411" type="passenger" depart="190.60">
        <route edges="top0A0.250.00 A0left0"/>
    </vehicle>
    <vehicle id="412" type="passenger" depart="190.90">
        <route edges="right0A0 right0A0.250.00 A0bottom0"/>
    </vehicle>
    <vehicle id="416" type="passenger" depart="194.40">
        <route edges="left0A0.250.00 A0bottom0"/>
    </vehicle>
    <vehicle id="418" type="passenger" depart="196.15">
        <route edges="right0A0.250.00 A0bottom0"/>
    </vehicle>
    <vehicle id="419" type="passenger" depart="196.30">
        <route edges="top0A0.250.00"/>
    </vehicle>
    <vehicle id="421" type="passenger" depart="197.95">
        <route edges="left0A0.250.00"/>
    </vehicle>
    <vehicle id="422" type="passenger" depart="198.80">
        <route edges="bottom0A0.250.00 A0left0"/>
    </vehicle>
    <vehicle id="424" type="passenger" depart="200.95">
        <route edges="top0A0 top0A0.250.00 A0bottom0"/>
    </vehicle>
    <vehicle id="428" type="passenger" depart="201.60">
        <route edges="top0A0 top0A0.250.00 A0bottom0"/>
    </vehicle>
    <vehicle id="429" type="passenger" depart="201.65">
        <route edges="top0A0 top0A0.250.00 A0bottom0"/>
    </vehicle>
    <vehicle id="440" type="passenger" depart="205.55">
        <route edges="bottom0A0.250.00 A0top0"/>
    </vehicle>
    <vehicle id="447" type="passenger" depart="210.80">
        <route edges="top0A0.250.00 A0left0"/>
    </vehicle>
    <vehicle id="448" type="passenger" depart="211.10">
        <route edges="top0A0.250.00 A0bottom0"/>
    </vehicle>
    <vehicle id="450" type="passenger" depart="211.25">
        <route edges="left0A0 left0A0.250.00 A0bottom0"/>
    </vehicle>
    <vehicle id="454" type="passenger" depart="213.10">
        <route edges="left0A0 left0A0.250.00 A0right0"/>
    </vehicle>
    <vehicle id="456" type="passenger" depart="214.70">
        <route edges="left0A0.250.00"/>
    </vehicle>
    <vehicle id="458" type="passenger" depart="215.90">
        <route edges="right0A0 right0A0.250.00 A0left0"/>
    </vehicle>
    <vehicle id="460" type="passenger" depart="217.50">
        <route edges="top0A0 top0A0.250.00"/>
    </vehicle>
    <vehicle id="461" type="passenger" depart="218.65">
        <route edges="right0A0 right0A0.250.00 A0top0"/>
    </vehicle>
    <vehicle id="462" type="passenger" depart="218.70">
        <route edges="top0A0 top0A0.250.00 A0left0"/>
    </vehicle>
    <vehicle id="464" type="passenger" depart="219.00">
        <route edges="right0A0.250.00"/>
    </vehicle>
    <vehicle id="465" type="passenger" depart="220.10">
        <route edges="bottom0A0 bottom0A0.250.00 A0top0"/>
    </vehicle>
    <vehicle id="466" type="passenger" depart="220.65">
        <route edges="right0A0.250.00 A0top0"/>
    </vehicle>
    <vehicle id="467" type="passenger" depart="221.20">
        <route edges="right0A0 right0A0.250.00"/>
    </vehicle>
    <vehicle id="469" type="passenger" depart="221.65">
        <route edges="left0A0 left0A0.250.00 A0bottom0"/>
    </vehicle>
    <vehicle id="471" type="passenger" depart="222.55">
        <route edges="bottom0A0 bottom0A0.250.00 A0top0"/>
    </vehicle>