<?xml version="1.0" encoding="UTF-8"?>

<!-- generated on 2023-02-12 18:46:44.008466 by randomTrips.py UNKNOWN
<configuration>
    <begin value="0"/>
    <end value="900"/>
    <insertion-rate value="12500.0"/>
    <net-file value="/home/franky3er/Documents/code/HieraGLight/scenarios/grid/5x5-150m/train/40-scenario/network.net.xml"/>
    <random value="True"/>
    <random-depart value="True"/>
    <route-file value="/home/franky3er/Documents/code/HieraGLight/scenarios/grid/5x5-150m/train/40-scenario/routes.rou.xml"/>
    <seed value="40"/>
    <output-trip-file value="/home/franky3er/Documents/code/HieraGLight/scenarios/grid/5x5-150m/train/40-scenario/trips.trips.xml"/>
    <vehicle-class value="passenger"/>
</configuration>
-->

<routes xmlns:xsi="http://www.w3.org/2001/XMLSchema-instance" xsi:noNamespaceSchemaLocation="http://sumo.dlr.de/xsd/routes_file.xsd">
    <vType id="passenger" vClass="passenger"/>
    <trip id="0" depart="0.30" from="top3D4.80.00" to="D3E3" type="passenger"/>
    <trip id="1" depart="0.71" from="B4C4.80.00" to="D1D2.80.00" type="passenger"/>
    <trip id="2" depart="1.08" from="E2D2" to="C1B1.80.00" type="passenger"/>
    <trip id="3" depart="1.38" from="B0C0" to="A4top0" type="passenger"/>
    <trip id="4" depart="1.54" from="E2E1.80.00" to="E0bottom4" type="passenger"/>
    <trip id="5" depart="1.67" from="B1B0.80.00" to="A2B2.80.00" type="passenger"/>
    <trip id="6" depart="2.45" from="A1A0.80.00" to="D2D3.80.00" type="passenger"/>
    <trip id="7" depart="2.59" from="B3C3.80.00" to="A3A2.80.00" type="passenger"/>
    <trip id="8" depart="3.09" from="B0A0" to="B3A3.80.00" type="passenger"/>
    <trip id="9" depart="3.48" from="D2D3.80.00" to="D3D4.80.00" type="passenger"/>
    <trip id="10" depart="3.57" from="C0D0" to="D2E2.80.00" type="passenger"/>
    <trip id="11" depart="3.66" from="D2E2" to="B4top1" type="passenger"/>
    <trip id="12" depart="4.98" from="bottom0A0" to="B3B2.80.00" type="passenger"/>
    <trip id="13" depart="5.10" from="C3C4" to="A3A2" type="passenger"/>
    <trip id="14" depart="5.38" from="right1E1.80.00" to="A3B3.80.00" type="passenger"/>
    <trip id="15" depart="6.48" from="E4D4" to="C1D1.80.00" type="passenger"/>
    <trip id="16" depart="7.07" from="right1E1" to="C1C2.80.00" type="passenger"/>
    <trip id="17" depart="7.65" from="B4C4.80.00" to="A1A0" type="passenger"/>
    <trip id="18" depart="8.13" from="left3A3.80.00" to="D3E3.80.00" type="passenger"/>
    <trip id="19" depart="9.15" from="top0A4" to="D3C3" type="passenger"/>
    <trip id="20" depart="9.16" from="top4E4.80.00" to="D2C2" type="passenger"/>
    <trip id="21" depart="9.29" from="D3E3.80.00" to="D4D3" type="passenger"/>
    <trip id="22" depart="9.42" from="D0C0.80.00" to="D1D2.80.00" type="passenger"/>
    <trip id="23" depart="9.57" from="D3E3.80.00" to="bottom0A0.80.00" type="passenger"/>
    <trip id="24" depart="9.82" from="E0E1.80.00" to="C1D1" type="passenger"/>
    <trip id="25" depart="10.07" from="A0A1" to="A3left3" type="passenger"/>
    <trip id="26" depart="10.12" from="B0C0.80.00" to="B4A4" type="passenger"/>
    <trip id="27" depart="11.18" from="D3E3.80.00" to="B3A3.80.00" type="passenger"/>
    <trip id="28" depart="11.47" from="A3A2.80.00" to="D0C0.80.00" type="passenger"/>
    <trip id="29" depart="11.92" from="B3C3" to="B3B4.80.00" type="passenger"/>
    <trip id="30" depart="12.05" from="C3C2" to="B2B1.80.00" type="passenger"/>
    <trip id="31" depart="12.11" from="E1E2.80.00" to="E2E3" type="passenger"/>
    <trip id="32" depart="12.26" from="B2C2" to="D4E4" type="passenger"/>
    <trip id="33" depart="12.72" from="C1C0.80.00" to="E0E1.80.00" type="passenger"/>
    <trip id="34" depart="13.00" from="A4A3.80.00" to="left4A4.80.00" type="passenger"/>
    <trip id="35" depart="13.06" from="A1A2.80.00" to="D4C4.80.00" type="passenger"/>
    <trip id="36" depart="13.06" from="bottom2C0" to="A1B1" type="passenger"/>
    <trip id="37" depart="13.42" from="left1A1" to="A3A4" type="passenger"/>
    <trip id="38" depart="13.60" from="E1D1.80.00" to="A3A4" type="passenger"/>
    <trip id="39" depart="13.65" from="B4B3" to="A3A4.80.00" type="passenger"/>
    <trip id="40" depart="14.01" from="bottom4E0.80.00" to="E2E3.80.00" type="passenger"/>
    <trip id="41" depart="14.11" from="C2D2.80.00" to="right1E1.80.00" type="passenger"/>
    <trip id="42" depart="14.39" from="B1B2" to="A2B2" type="passenger"/>
    <trip id="43" depart="14.70" from="E0E1.80.00" to="right2E2.80.00" type="passenger"/>
    <trip id="44" depart="14.79" from="top2C4.80.00" to="bottom1B0.80.00" type="passenger"/>
    <trip id="45" depart="15.09" from="C2C3" to="E4right4" type="passenger"/>
    <trip id="46" depart="15.14" from="left4A4" to="C4D4" type="passenger"/>
    <trip id="47" depart="15.53" from="E1E2.80.00" to="D3D2.80.00" type="passenger"/>
    <trip id="48" depart="15.65" from="A4B4.80.00" to="B4B3" type="passenger"/>
    <trip id="49" depart="15.97" from="right1E1.80.00" to="A3left3" type="passenger"/>
    <trip id="50" depart="16.04" from="bottom1B0.80.00" to="E3E2" type="passenger"/>
    <trip id="51" depart="17.11" from="B3A3.80.00" to="D0E0.80.00" type="passenger"/>
    <trip id="52" depart="17.17" from="B0A0.80.00" to="B3C3" type="passenger"/>
    <trip id="53" depart="17.25" from="C3C4.80.00" to="A2B2.80.00" type="passenger"/>
    <trip id="54" depart="17.29" from="B1C1" to="A1A0" type="passenger"/>
    <trip id="55" depart="17.33" from="A1B1" to="E0E1.80.00" type="passenger"/>
    <trip id="56" depart="17.49" from="E0D0.80.00" to="left2A2.80.00" type="passenger"/>
    <trip id="57" depart="18.16" from="D0D1.80.00" to="D2C2" type="passenger"/>
    <trip id="58" depart="18.96" from="D1D0" to="C2C1.80.00" type="passenger"/>
    <trip id="59" depart="19.62" from="bottom1B0" to="D4E4" type="passenger"/>
    <trip id="60" depart="19.63" from="C1C0" to="B3B2" type="passenger"/>
    <trip id="61" depart="19.90" from="top2C4.80.00" to="right3E3.80.00" type="passenger"/>
    <trip id="62" depart="20.00" from="left2A2.80.00" to="E3D3" type="passenger"/>
    <trip id="63" depart="20.02" from="A2B2" to="D3C3" type="passenger"/>
    <trip id="64" depart="20.89" from="D4C4.80.00" to="D2D1" type="passenger"/>
    <trip id="65" depart="20.97" from="B3C3.80.00" to="bottom2C0.80.00" type="passenger"/>
    <trip id="66" depart="21.08" from="right3E3" to="B3B4.80.00" type="passenger"/>
    <trip id="67" depart="21.12" from="A3A2.80.00" to="bottom4E0.80.00" type="passenger"/>
    <trip id="68" depart="21.20" from="E0E1" to="B3C3" type="passenger"/>
    <trip id="69" depart="21.39" from="D3D4.80.00" to="E4E3.80.00" type="passenger"/>
    <trip id="70" depart="21.42" from="C4B4" to="D1E1" type="passenger"/>
    <trip id="71" depart="21.44" from="D1C1.80.00" to="right1E1.80.00" type="passenger"/>
    <trip id="72" depart="21.53" from="B2A2" to="left2A2.80.00" type="passenger"/>
    <trip id="73" depart="21.93" from="E1E0.80.00" to="A2A3.80.00" type="passenger"/>
    <trip id="74" depart="24.86" from="D1D2.80.00" to="E1E0" type="passenger"/>
    <trip id="75" depart="24.89" from="B1A1.80.00" to="D1D0" type="passenger"/>
    <trip id="76" depart="25.10" from="E4E3" to="B3A3.80.00" type="passenger"/>
    <trip id="77" depart="25.78" from="top2C4" to="top3D4.80.00" type="passenger"/>
    <trip id="78" depart="25.87" from="left0A0.80.00" to="D4D3" type="passenger"/>
    <trip id="79" depart="26.73" from="E4D4" to="B0C0.80.00" type="passenger"/>
    <trip id="80" depart="26.73" from="B4C4.80.00" to="top4E4.80.00" type="passenger"/>
    <trip id="81" depart="27.02" from="right4E4.80.00" to="D0bottom3" type="passenger"/>
    <trip id="82" depart="27.03" from="C3B3.80.00" to="E3E4.80.00" type="passenger"/>
    <trip id="83" depart="27.19" from="D3C3" to="A4left4" type="passenger"/>
    <trip id="84" depart="27.36" from="D0E0.80.00" to="D1D0.80.00" type="passenger"/>
    <trip id="85" depart="27.54" from="D3D2.80.00" to="C0D0" type="passenger"/>
    <trip id="86" depart="27.54" from="D4D3" to="B4A4" type="passenger"/>
    <trip id="87" depart="27.82" from="B3A3.80.00" to="B3A3" type="passenger"/>
    <trip id="88" depart="28.23" from="D2D1" to="B4C4.80.00" type="passenger"/>
    <trip id="89" depart="28.43" from="B1B2.80.00" to="E3E4" type="passenger"/>
    <trip id="90" depart="28.72" from="C3B3" to="E1E2" type="passenger"/>
    <trip id="91" depart="29.19" from="B3B2.80.00" to="C3D3" type="passenger"/>
    <trip id="92" depart="29.34" from="A3B3.80.00" to="B4top1" type="passenger"/>
    <trip id="93" depart="29.75" from="right4E4" to="E3E4" type="passenger"/>
    <trip id="94" depart="29.94" from="B1B2.80.00" to="D0E0" type="passenger"/>
    <trip id="95" depart="30.21" from="E2E3.80.00" to="D2C2.80.00" type="passenger"/>
    <trip id="96" depart="30.56" from="E2E1.80.00" to="C4C3" type="passenger"/>
    <trip id="97" depart="30.71" from="A1B1.80.00" to="B0A0.80.00" type="passenger"/>
    <trip id="98" depart="30.72" from="C4C3.80.00" to="D1D2" type="passenger"/>
    <trip id="99" depart="30.77" from="D2E2" to="D1C1" type="passenger"/>
    <trip id="100" depart="31.64" from="top0A4.80.00" to="A3A2.80.00" type="passenger"/>
    <trip id="101" depart="32.02" from="C3B3" to="B4top1" type="passenger"/>
    <trip id="102" depart="32.94" from="A2A1" to="B0B1.80.00" type="passenger"/>
    <trip id="103" depart="33.12" from="B0C0.80.00" to="right4E4.80.00" type="passenger"/>
    <trip id="104" depart="33.21" from="E3E2" to="C4top2" type="passenger"/>
    <trip id="105" depart="33.46" from="B2C2" to="C3D3.80.00" type="passenger"/>
    <trip id="106" depart="34.05" from="A1A0.80.00" to="D2D1.80.00" type="passenger"/>
    <trip id="107" depart="34.78" from="top0A4" to="E4right4" type="passenger"/>
    <trip id="108" depart="34.90" from="B2A2" to="D0E0" type="passenger"/>
    <trip id="109" depart="34.94" from="A2A1.80.00" to="C0D0" type="passenger"/>
    <trip id="110" depart="35.66" from="right0E0" to="A3left3" type="passenger"/>
    <trip id="111" depart="36.90" from="A1A0.80.00" to="C2C3.80.00" type="passenger"/>
    <trip id="112" depart="36.93" from="C1B1.80.00" to="D3D2.80.00" type="passenger"/>
    <trip id="113" depart="37.09" from="A0A1" to="A1B1" type="passenger"/>
    <trip id="114" depart="37.18" from="top1B4" to="C2C1.80.00" type="passenger"/>
    <trip id="115" depart="37.78" from="E2D2" to="E1E2.80.00" type="passenger"/>
    <trip id="116" depart="38.25" from="C1C2.80.00" to="A1left1" type="passenger"/>
    <trip id="117" depart="38.54" from="B3A3.80.00" to="A3B3" type="passenger"/>
    <trip id="118" depart="38.54" from="A2B2" to="D2E2" type="passenger"/>
    <trip id="119" depart="38.56" from="left1A1" to="E3E2.80.00" type="passenger"/>
    <trip id="120" depart="38.83" from="C1D1" to="A2B2" type="passenger"/>
    <trip id="121" depart="39.05" from="B1C1" to="C3C2.80.00" type="passenger"/>
    <trip id="122" depart="39.38" from="A4B4.80.00" to="C0B0.80.00" type="passenger"/>
    <trip id="123" depart="39.42" from="E1E2" to="D1D0.80.00" type="passenger"/>
    <trip id="124" depart="39.65" from="D4C4.80.00" to="A2A1.80.00" type="passenger"/>
    <trip id="125" depart="39.69" from="C2D2.80.00" to="E1E0.80.00" type="passenger"/>
    <trip id="126" depart="39.94" from="E4E3" to="B3A3.80.00" type="passenger"/>
    <trip id="127" depart="40.17" from="C2D2.80.00" to="B0C0.80.00" type="passenger"/>
    <trip id="128" depart="40.18" from="E4E3" to="left3A3.80.00" type="passenger"/>
    <trip id="129" depart="40.34" from="E1D1.80.00" to="D2E2" type="passenger"/>
    <trip id="130" depart="40.38" from="left3A3.80.00" to="C1D1.80.00" type="passenger"/>
    <trip id="131" depart="40.78" from="A4B4" to="B1B2.80.00" type="passenger"/>
    <trip id="132" depart="40.99" from="B2A2.80.00" to="B4A4.80.00" type="passenger"/>
    <trip id="133" depart="40.99" from="A0B0.80.00" to="A2A3.80.00" type="passenger"/>
    <trip id="134" depart="41.02" from="A4B4" to="A3A4" type="passenger"/>
    <trip id="135" depart="41.09" from="bottom4E0" to="D3E3" type="passenger"/>
    <trip id="136" depart="41.30" from="D1D2.80.00" to="D2C2" type="passenger"/>
    <trip id="137" depart="41.92" from="E2E3" to="C0bottom2" type="passenger"/>
    <trip id="138" depart="42.35" from="C1C2" to="D3C3.80.00" type="passenger"/>
    <trip id="139" depart="42.46" from="bottom3D0" to="B4C4.80.00" type="passenger"/>
    <trip id="140" depart="43.35" from="D3E3" to="D2D1.80.00" type="passenger"/>
    <trip id="141" depart="43.38" from="E3D3.80.00" to="B2C2.80.00" type="passenger"/>
    <trip id="142" depart="43.44" from="C1B1.80.00" to="E3D3" type="passenger"/>
    <trip id="143" depart="43.54" from="D2C2.80.00" to="A4top0" type="passenger"/>
    <trip id="144" depart="43.58" from="bottom4E0" to="top4E4.80.00" type="passenger"/>
    <trip id="145" depart="43.62" from="A4A3.80.00" to="B2B1" type="passenger"/>
    <trip id="146" depart="43.94" from="D0C0.80.00" to="B2A2" type="passenger"/>
    <trip id="147" depart="43.99" from="A3A2" to="E2E3.80.00" type="passenger"/>
    <trip id="148" depart="44.02" from="C1D1.80.00" to="D4D3.80.00" type="passenger"/>
    <trip id="149" depart="44.32" from="C4D4.80.00" to="E0E1.80.00" type="passenger"/>
    <trip id="150" depart="44.34" from="D4C4.80.00" to="E2E1" type="passenger"/>
    <trip id="151" depart="44.94" from="E1E2" to="C4D4.80.00" type="passenger"/>
    <trip id="152" depart="46.08" from="D1D2" to="B2B1" type="passenger"/>
    <trip id="153" depart="46.10" from="C1B1" to="D2D1.80.00" type="passenger"/>
    <trip id="154" depart="46.11" from="B4A4.80.00" to="C2B2" type="passenger"/>
    <trip id="155" depart="46.18" from="C3B3.80.00" to="B2B1.80.00" type="passenger"/>
    <trip id="156" depart="47.13" from="B1B2" to="A0B0" type="passenger"/>
    <trip id="157" depart="47.58" from="C4C3.80.00" to="top2C4.80.00" type="passenger"/>
    <trip id="158" depart="47.81" from="bottom0A0.80.00" to="bottom2C0.80.00" type="passenger"/>
    <trip id="159" depart="47.85" from="B2B3" to="A4A3" type="passenger"/>
    <trip id="160" depart="47.89" from="bottom1B0.80.00" to="E3D3" type="passenger"/>
    <trip id="161" depart="48.43" from="A3A2.80.00" to="E4top4" type="passenger"/>
    <trip id="162" depart="48.46" from="A3A4" to="C2C3.80.00" type="passenger"/>
    <trip id="163" depart="48.49" from="B0A0.80.00" to="E1D1" type="passenger"/>
    <trip id="164" depart="48.53" from="B4A4" to="E2E1" type="passenger"/>
    <trip id="165" depart="48.70" from="C3C4.80.00" to="C0B0.80.00" type="passenger"/>
    <trip id="166" depart="48.86" from="C2C1.80.00" to="A0A1" type="passenger"/>
    <trip id="167" depart="48.86" from="C3B3.80.00" to="C4C3.80.00" type="passenger"/>
    <trip id="168" depart="48.90" from="A3B3" to="A0bottom0" type="passenger"/>
    <trip id="169" depart="48.94" from="D1C1.80.00" to="C0B0.80.00" type="passenger"/>
    <trip id="170" depart="48.99" from="C2B2" to="C3D3" type="passenger"/>
    <trip id="171" depart="49.11" from="B0A0" to="A1A0.80.00" type="passenger"/>
    <trip id="172" depart="49.33" from="B2B3.80.00" to="D0D1.80.00" type="passenger"/>
    <trip id="173" depart="49.58" from="right1E1" to="C2C1" type="passenger"/>
    <trip id="174" depart="49.61" from="D3D2" to="C3C2.80.00" type="passenger"/>
    <trip id="175" depart="49.63" from="B3C3.80.00" to="C4D4" type="passenger"/>
    <trip id="176" depart="50.69" from="D1E1" to="left2A2.80.00" type="passenger"/>
    <trip id="177" depart="51.21" from="A0A1.80.00" to="C2C3.80.00" type="passenger"/>
    <trip id="178" depart="51.55" from="D4E4" to="E0E1.80.00" type="passenger"/>
    <trip id="179" depart="52.14" from="A2A3.80.00" to="left0A0.80.00" type="passenger"/>
    <trip id="180" depart="52.63" from="top1B4.80.00" to="A3A2.80.00" type="passenger"/>
    <trip id="181" depart="53.08" from="C3B3.80.00" to="top1B4.80.00" type="passenger"/>
    <trip id="182" depart="53.34" from="E3E4.80.00" to="B2B3.80.00" type="passenger"/>
    <trip id="183" depart="53.51" from="D1C1.80.00" to="B3C3.80.00" type="passenger"/>
    <trip id="184" depart="53.59" from="B2B3" to="C2C1.80.00" type="passenger"/>
    <trip id="185" depart="54.04" from="bottom1B0.80.00" to="C2C1" type="passenger"/>
    <trip id="186" depart="54.52" from="E1D1.80.00" to="top1B4.80.00" type="passenger"/>
    <trip id="187" depart="56.06" from="left4A4" to="C4top2" type="passenger"/>
    <trip id="188" depart="56.13" from="D1D0" to="A2B2" type="passenger"/>
    <trip id="189" depart="56.26" from="top1B4.80.00" to="A0A1" type="passenger"/>
    <trip id="190" depart="56.94" from="C0D0.80.00" to="E3D3.80.00" type="passenger"/>
    <trip id="191" depart="57.04" from="A3A4" to="A2left2" type="passenger"/>
    <trip id="192" depart="58.34" from="E0D0.80.00" to="D2C2.80.00" type="passenger"/>
    <trip id="193" depart="58.42" from="C3C2.80.00" to="B2A2.80.00" type="passenger"/>
    <trip id="194" depart="58.55" from="C4B4" to="A0B0" type="passenger"/>
    <trip id="195" depart="58.78" from="E2D2.80.00" to="C4B4" type="passenger"/>
    <trip id="196" depart="58.84" from="B2B3.80.00" to="E1E2.80.00" type="passenger"/>
    <trip id="197" depart="59.65" from="C2C1" to="B3B4.80.00" type="passenger"/>
    <trip id="198" depart="59.84" from="C1D1" to="A2A3.80.00" type="passenger"/>
    <trip id="199" depart="60.15" from="B3A3.80.00" to="A2A1.80.00" type="passenger"/>
    <trip id="200" depart="60.57" from="left0A0.80.00" to="B4top1" type="passenger"/>
    <trip id="201" depart="61.46" from="left4A4" to="left4A4.80.00" type="passenger"/>
    <trip id="202" depart="62.12" from="D3D4.80.00" to="C1D1.80.00" type="passenger"/>
    <trip id="203" depart="62.14" from="D2C2" to="D2D1" type="passenger"/>
    <trip id="204" depart="62.59" from="D2C2.80.00" to="B4B3" type="passenger"/>
    <trip id="205" depart="63.05" from="B3A3" to="D0D1.80.00" type="passenger"/>
    <trip id="206" depart="63.33" from="right0E0" to="E3D3" type="passenger"/>
    <trip id="207" depart="63.46" from="B1B0.80.00" to="A0A1" type="passenger"/>
    <trip id="208" depart="64.35" from="A3A2.80.00" to="C3D3.80.00" type="passenger"/>
    <trip id="209" depart="64.47" from="D0D1" to="C0C1.80.00" type="passenger"/>
    <trip id="210" depart="64.64" from="C3B3" to="B2C2.80.00" type="passenger"/>
    <trip id="211" depart="64.74" from="D1D0.80.00" to="B4C4.80.00" type="passenger"/>
    <trip id="212" depart="65.13" from="B0A0.80.00" to="B0A0.80.00" type="passenger"/>
    <trip id="213" depart="65.22" from="B3A3" to="B3B4" type="passenger"/>
    <trip id="214" depart="65.63" from="B0A0" to="D4C4.80.00" type="passenger"/>
    <trip id="215" depart="65.66" from="D0C0" to="D2D1.80.00" type="passenger"/>
    <trip id="216" depart="65.69" from="right0E0" to="E3E2" type="passenger"/>
    <trip id="217" depart="65.94" from="C4C3" to="A2B2" type="passenger"/>
    <trip id="218" depart="66.56" from="top1B4.80.00" to="E3right3" type="passenger"/>
    <trip id="219" depart="66.58" from="E4E3" to="bottom3D0.80.00" type="passenger"/>
    <trip id="220" depart="66.66" from="D1D0" to="E1E0.80.00" type="passenger"/>
    <trip id="221" depart="67.14" from="left0A0" to="B4A4" type="passenger"/>
    <trip id="222" depart="67.94" from="D4C4.80.00" to="A1B1.80.00" type="passenger"/>
    <trip id="223" depart="68.32" from="C1C0.80.00" to="B4B3" type="passenger"/>
    <trip id="224" depart="68.43" from="B3C3" to="A2A1.80.00" type="passenger"/>
    <trip id="225" depart="68.65" from="D2E2" to="D2D1" type="passenger"/>
    <trip id="226" depart="68.86" from="top0A4" to="A4B4.80.00" type="passenger"/>
    <trip id="227" depart="68.94" from="B1A1" to="B2A2.80.00" type="passenger"/>
    <trip id="228" depart="69.23" from="B2B1.80.00" to="A1A2" type="passenger"/>
    <trip id="229" depart="69.37" from="E1E0.80.00" to="B0bottom1" type="passenger"/>
    <trip id="230" depart="69.97" from="E2E3" to="E2D2.80.00" type="passenger"/>
    <trip id="231" depart="69.98" from="A1A2" to="C0C1.80.00" type="passenger"/>
    <trip id="232" depart="70.02" from="top3D4.80.00" to="B1B0.80.00" type="passenger"/>
    <trip id="233" depart="70.12" from="A2A1.80.00" to="B0A0.80.00" type="passenger"/>
    <trip id="234" depart="70.24" from="C4C3.80.00" to="D4E4" type="passenger"/>
    <trip id="235" depart="70.31" from="A1A2.80.00" to="E0right0" type="passenger"/>
    <trip id="236" depart="70.50" from="B4C4.80.00" to="B2B3.80.00" type="passenger"/>
    <trip id="237" depart="71.17" from="B2B1" to="D4D3.80.00" type="passenger"/>
    <trip id="238" depart="71.54" from="A2B2.80.00" to="D0D1" type="passenger"/>
    <trip id="239" depart="71.75" from="A1A2" to="D0E0.80.00" type="passenger"/>
    <trip id="240" depart="72.02" from="left0A0.80.00" to="C2C1.80.00" type="passenger"/>
    <trip id="241" depart="72.38" from="D3D4.80.00" to="D4D3.80.00" type="passenger"/>
    <trip id="242" depart="72.46" from="D4C4.80.00" to="A2A3.80.00" type="passenger"/>
    <trip id="243" depart="72.48" from="left4A4.80.00" to="C4C3" type="passenger"/>
    <trip id="244" depart="73.22" from="D4C4.80.00" to="A2B2" type="passenger"/>
    <trip id="245" depart="74.00" from="B1A1.80.00" to="B1B2" type="passenger"/>
    <trip id="246" depart="74.27" from="C2B2" to="C2D2.80.00" type="passenger"/>
    <trip id="247" depart="75.14" from="C3C4" to="B2B1.80.00" type="passenger"/>
    <trip id="248" depart="75.30" from="left3A3.80.00" to="C1C0.80.00" type="passenger"/>
    <trip id="249" depart="75.33" from="E2E1.80.00" to="B4A4.80.00" type="passenger"/>
    <trip id="250" depart="75.40" from="B0A0.80.00" to="E4E3.80.00" type="passenger"/>
    <trip id="251" depart="75.40" from="C2C1" to="A3A2.80.00" type="passenger"/>
    <trip id="252" depart="76.46" from="E3D3.80.00" to="E1D1" type="passenger"/>
    <trip id="253" depart="76.59" from="B2A2" to="A1A2" type="passenger"/>
    <trip id="254" depart="77.17" from="top3D4" to="C3B3" type="passenger"/>
    <trip id="255" depart="77.48" from="C3C2.80.00" to="E4E3.80.00" type="passenger"/>
    <trip id="256" depart="77.53" from="C3B3.80.00" to="A1A0" type="passenger"/>
    <trip id="257" depart="77.66" from="B4B3" to="left3A3.80.00" type="passenger"/>
    <trip id="258" depart="78.22" from="top4E4.80.00" to="B2C2" type="passenger"/>
    <trip id="259" depart="78.69" from="D0D1.80.00" to="D0E0.80.00" type="passenger"/>
    <trip id="260" depart="79.31" from="D0C0" to="D4D3" type="passenger"/>
    <trip id="261" depart="79.64" from="D1E1.80.00" to="left1A1.80.00" type="passenger"/>
    <trip id="262" depart="79.64" from="C0B0" to="B1B0" type="passenger"/>
    <trip id="263" depart="79.71" from="top4E4.80.00" to="D4D3" type="passenger"/>
    <trip id="264" depart="80.14" from="D1E1.80.00" to="A4left4" type="passenger"/>
    <trip id="265" depart="80.52" from="C3C4.80.00" to="E1D1.80.00" type="passenger"/>
    <trip id="266" depart="81.06" from="E4D4.80.00" to="D0C0.80.00" type="passenger"/>
    <trip id="267" depart="81.46" from="A0A1.80.00" to="B2C2" type="passenger"/>
    <trip id="268" depart="81.68" from="E1E0.80.00" to="C0C1.80.00" type="passenger"/>
    <trip id="269" depart="81.74" from="D1E1.80.00" to="A1A0" type="passenger"/>
    <trip id="270" depart="81.75" from="B1A1" to="C1B1" type="passenger"/>
    <trip id="271" depart="82.18" from="C1C0.80.00" to="A3B3" type="passenger"/>
    <trip id="272" depart="82.30" from="C0D0.80.00" to="A2A1" type="passenger"/>
    <trip id="273" depart="82.32" from="C3C2.80.00" to="C4B4" type="passenger"/>
    <trip id="274" depart="82.66" from="B2B1" to="E3E4.80.00" type="passenger"/>
    <trip id="275" depart="82.79" from="E1D1.80.00" to="E3right3" type="passenger"/>
    <trip id="276" depart="82.82" from="E3E4" to="B2C2" type="passenger"/>
    <trip id="277" depart="82.87" from="D4C4.80.00" to="A0B0.80.00" type="passenger"/>
    <trip id="278" depart="83.19" from="D0C0" to="B4top1" type="passenger"/>
    <trip id="279" depart="83.23" from="bottom4E0.80.00" to="C1D1.80.00" type="passenger"/>
    <trip id="280" depart="83.24" from="E1D1.80.00" to="E1D1.80.00" type="passenger"/>
    <trip id="281" depart="83.96" from="C2B2.80.00" to="E3E2" type="passenger"/>
    <trip id="282" depart="84.08" from="C3C2.80.00" to="B0C0.80.00" type="passenger"/>
    <trip id="283" depart="84.29" from="D3E3.80.00" to="C1C2" type="passenger"/>
    <trip id="284" depart="84.63" from="D1C1.80.00" to="C4D4" type="passenger"/>
    <trip id="285" depart="85.05" from="D0C0" to="D0D1.80.00" type="passenger"/>
    <trip id="286" depart="85.21" from="B3A3.80.00" to="D2E2" type="passenger"/>
    <trip id="287" depart="86.43" from="C0B0" to="D2D3" type="passenger"/>
    <trip id="288" depart="86.56" from="B1B0" to="A0B0.80.00" type="passenger"/>
    <trip id="289" depart="87.60" from="right2E2.80.00" to="A0B0" type="passenger"/>
    <trip id="290" depart="87.71" from="C2C3.80.00" to="B4B3.80.00" type="passenger"/>
    <trip id="291" depart="87.89" from="top2C4" to="E1E2" type="passenger"/>
    <trip id="292" depart="88.24" from="B3B2" to="E0right0" type="passenger"/>
    <trip id="293" depart="88.83" from="D0E0" to="B1B0.80.00" type="passenger"/>
    <trip id="294" depart="88.90" from="B1B0" to="A3B3.80.00" type="passenger"/>
    <trip id="295" depart="89.27" from="B0B1.80.00" to="E3E2.80.00" type="passenger"/>
    <trip id="296" depart="90.01" from="B4A4" to="C1B1" type="passenger"/>
    <trip id="297" depart="90.38" from="B2C2" to="B3B2.80.00" type="passenger"/>
    <trip id="298" depart="90.53" from="C0B0.80.00" to="E1E2" type="passenger"/>
    <trip id="299" depart="90.54" from="C2C3.80.00" to="A0B0" type="passenger"/>
    <trip id="300" depart="90.96" from="D3E3" to="A4B4.80.00" type="passenger"/>
    <trip id="301" depart="91.54" from="E4E3" to="D3E3.80.00" type="passenger"/>
    <trip id="302" depart="91.66" from="B4A4" to="A0A1" type="passenger"/>
    <trip id="303" depart="92.75" from="bottom0A0" to="A4B4" type="passenger"/>
    <trip id="304" depart="92.82" from="B0B1.80.00" to="bottom0A0.80.00" type="passenger"/>
    <trip id="305" depart="92.97" from="C4D4.80.00" to="D2C2.80.00" type="passenger"/>
    <trip id="306" depart="92.98" from="left3A3.80.00" to="bottom1B0.80.00" type="passenger"/>
    <trip id="307" depart="93.38" from="D1C1" to="C4B4" type="passenger"/>
    <trip id="308" depart="94.61" from="right3E3.80.00" to="E4E3" type="passenger"/>
    <trip id="309" depart="94.84" from="top2C4" to="E3E2" type="passenger"/>
    <trip id="310" depart="94.88" from="bottom3D0" to="A4top0" type="passenger"/>
    <trip id="311" depart="94.98" from="E2E3.80.00" to="D2E2.80.00" type="passenger"/>
    <trip id="312" depart="95.06" from="D2E2.80.00" to="D2E2.80.00" type="passenger"/>
    <trip id="313" depart="95.34" from="D1D2.80.00" to="E4right4" type="passenger"/>
    <trip id="314" depart="95.46" from="right1E1" to="C1B1.80.00" type="passenger"/>
    <trip id="315" depart="95.90" from="B3A3" to="D4E4.80.00" type="passenger"/>
    <trip id="316" depart="95.95" from="C1C2.80.00" to="B2B1" type="passenger"/>
    <trip id="317" depart="95.96" from="right4E4.80.00" to="right0E0.80.00" type="passenger"/>
    <trip id="318" depart="96.10" from="D1C1.80.00" to="E4E3" type="passenger"/>
    <trip id="319" depart="96.29" from="bottom0A0.80.00" to="left2A2.80.00" type="passenger"/>
    <trip id="320" depart="96.57" from="B3C3.80.00" to="C2C1.80.00" type="passenger"/>
    <trip id="321" depart="96.62" from="D3D4" to="A0left0" type="passenger"/>
    <trip id="322" depart="96.99" from="C1B1.80.00" to="D3D4" type="passenger"/>
    <trip id="323" depart="97.22" from="left3A3.80.00" to="D1D2" type="passenger"/>
    <trip id="324" depart="97.40" from="B4C4" to="B1B0.80.00" type="passenger"/>
    <trip id="325" depart="99.45" from="top1B4" to="A2A3" type="passenger"/>
    <trip id="326" depart="99.50" from="C1C2" to="B1B0.80.00" type="passenger"/>
    <trip id="327" depart="99.82" from="C2C3" to="left0A0.80.00" type="passenger"/>
    <trip id="328" depart="100.01" from="bottom4E0" to="C4B4" type="passenger"/>
    <trip id="329" depart="100.64" from="top1B4" to="D3D2.80.00" type="passenger"/>
    <trip id="330" depart="100.67" from="E1E2" to="left2A2.80.00" type="passenger"/>
    <trip id="331" depart="100.71" from="left0A0.80.00" to="A0bottom0" type="passenger"/>
    <trip id="332" depart="100.95" from="E3D3" to="A0B0" type="passenger"/>
    <trip id="333" depart="101.42" from="top2C4.80.00" to="C0C1" type="passenger"/>
    <trip id="334" depart="101.46" from="A2A3" to="top1B4.80.00" type="passenger"/>
    <trip id="335" depart="101.48" from="bottom0A0" to="D1D0.80.00" type="passenger"/>
    <trip id="336" depart="101.54" from="B4A4" to="C4top2" type="passenger"/>
    <trip id="337" depart="101.57" from="D3D2" to="E4D4.80.00" type="passenger"/>
    <trip id="338" depart="101.82" from="A2A3.80.00" to="B0C0" type="passenger"/>
    <trip id="339" depart="101.98" from="left0A0.80.00" to="A2A1.80.00" type="passenger"/>
    <trip id="340" depart="102.02" from="B4A4" to="E4D4.80.00" type="passenger"/>
    <trip id="341" depart="102.17" from="D0D1.80.00" to="A1A2.80.00" type="passenger"/>
    <trip id="342" depart="102.34" from="B0B1" to="B4B3.80.00" type="passenger"/>
    <trip id="343" depart="103.07" from="E0E1" to="C3B3.80.00" type="passenger"/>
    <trip id="344" depart="103.29" from="E2D2.80.00" to="B2A2.80.00" type="passenger"/>
    <trip id="345" depart="103.32" from="D2D1" to="D2D3.80.00" type="passenger"/>
    <trip id="346" depart="103.80" from="B1B0" to="E2D2.80.00" type="passenger"/>
    <trip id="347" depart="104.30" from="B1A1" to="D3C3" type="passenger"/>
    <trip id="348" depart="104.39" from="D0D1" to="E2right2" type="passenger"/>
    <trip id="349" depart="104.65" from="A1A2" to="D0C0" type="passenger"/>
    <trip id="350" depart="105.41" from="C2C3.80.00" to="C1C2" type="passenger"/>
    <trip id="351" depart="105.42" from="C1B1.80.00" to="E0bottom4" type="passenger"/>