<?xml version="1.0" encoding="UTF-8"?>

<!-- generated on 2023-04-26 16:56:46.466398 by randomTrips.py UNKNOWN
<configuration>
    <begin value="0"/>
    <end value="900"/>
    <insertion-rate value="8000.0"/>
    <net-file value="/home/franky3er/Documents/code/HieraGLight/scenarios/grid/1x1-500m/train/30-scenario/network.net.xml"/>
    <random value="True"/>
    <random-depart value="True"/>
    <route-file value="/home/franky3er/Documents/code/HieraGLight/scenarios/grid/1x1-500m/train/30-scenario/routes.rou.xml"/>
    <seed value="30"/>
    <output-trip-file value="/home/franky3er/Documents/code/HieraGLight/scenarios/grid/1x1-500m/train/30-scenario/trips.trips.xml"/>
    <vehicle-class value="passenger"/>
</configuration>
-->

<routes xmlns:xsi="http://www.w3.org/2001/XMLSchema-instance" xsi:noNamespaceSchemaLocation="http://sumo.dlr.de/xsd/routes_file.xsd">
    <vType id="passenger" vClass="passenger"/>
    <trip id="0" depart="0.10" from="left0A0.250.00" to="left0A0.250.00" type="passenger"/>
    <trip id="1" depart="1.25" from="right0A0" to="left0A0.250.00" type="passenger"/>
    <trip id="2" depart="1.80" from="right0A0.250.00" to="A0left0" type="passenger"/>
    <trip id="3" depart="2.20" from="bottom0A0.250.00" to="A0left0" type="passenger"/>
    <trip id="4" depart="3.05" from="bottom0A0.250.00" to="A0bottom0" type="passenger"/>
    <trip id="5" depart="3.55" from="top0A0" to="A0bottom0" type="passenger"/>
    <trip id="6" depart="3.60" from="bottom0A0" to="left0A0.250.00" type="passenger"/>
    <trip id="7" depart="4.35" from="top0A0" to="A0right0" type="passenger"/>
    <trip id="8" depart="4.60" from="bottom0A0.250.00" to="top0A0.250.00" type="passenger"/>
    <trip id="9" depart="5.50" from="right0A0.250.00" to="A0left0" type="passenger"/>
    <trip id="10" depart="6.05" from="right0A0.250.00" to="A0left0" type="passenger"/>
    <trip id="11" depart="6.25" from="left0A0.250.00" to="A0left0" type="passenger"/>
    <trip id="12" depart="6.50" from="right0A0" to="A0top0" type="passenger"/>
    <trip id="13" depart="6.80" from="top0A0.250.00" to="top0A0.250.00" type="passenger"/>
    <trip id="14" depart="7.35" from="right0A0.250.00" to="left0A0.250.00" type="passenger"/>
    <trip id="15" depart="8.10" from="bottom0A0.250.00" to="top0A0.250.00" type="passenger"/>
    <trip id="16" depart="8.70" from="bottom0A0" to="left0A0.250.00" type="passenger"/>
    <trip id="17" depart="8.80" from="right0A0.250.00" to="right0A0.250.00" type="passenger"/>
    <trip id="18" depart="8.85" from="left0A0.250.00" to="A0bottom0" type="passenger"/>
    <trip id="19" depart="9.45" from="top0A0.250.00" to="A0left0" type="passenger"/>
    <trip id="20" depart="9.50" from="top0A0" to="left0A0.250.00" type="passenger"/>
    <trip id="21" depart="10.25" from="top0A0.250.00" to="bottom0A0.250.00" type="passenger"/>
    <trip id="22" depart="10.45" from="bottom0A0" to="top0A0.250.00" type="passenger"/>
    <trip id="23" depart="10.75" from="right0A0.250.00" to="A0bottom0" type="passenger"/>
    <trip id="24" depart="10.85" from="bottom0A0" to="top0A0.250.00" type="passenger"/>
    <trip id="25" depart="11.15" from="top0A0" to="top0A0.250.00" type="passenger"/>
    <trip id="26" depart="11.25" from="left0A0" to="top0A0.250.00" type="passenger"/>
    <trip id="27" depart="12.30" from="bottom0A0" to="left0A0.250.00" type="passenger"/>
    <trip id="28" depart="12.50" from="right0A0" to="A0top0" type="passenger"/>
    <trip id="29" depart="12.70" from="bottom0A0" to="top0A0.250.00" type="passenger"/>
    <trip id="30" depart="12.75" from="right0A0.250.00" to="left0A0.250.00" type="passenger"/>
    <trip id="31" depart="12.95" from="top0A0.250.00" to="bottom0A0.250.00" type="passenger"/>
    <trip id="32" depart="13.35" from="top0A0" to="A0right0" type="passenger"/>
    <trip id="33" depart="13.75" from="left0A0" to="bottom0A0.250.00" type="passenger"/>
    <trip id="34" depart="14.55" from="left0A0" to="A0bottom0" type="passenger"/>
    <trip id="35" depart="14.85" from="right0A0" to="bottom0A0.250.00" type="passenger"/>
    <trip id="36" depart="15.30" from="right0A0" to="A0top0" type="passenger"/>
    <trip id="37" depart="15.55" from="bottom0A0.250.00" to="top0A0.250.00" type="passenger"/>
    <trip id="38" depart="17.55" from="bottom0A0.250.00" to="top0A0.250.00" type="passenger"/>
    <trip id="39" depart="18.20" from="top0A0" to="bottom0A0.250.00" type="passenger"/>
    <trip id="40" depart="18.25" from="right0A0.250.00" to="A0top0" type="passenger"/>
    <trip id="41" depart="18.25" from="bottom0A0.250.00" to="right0A0.250.00" type="passenger"/>
    <trip id="42" depart="18.30" from="bottom0A0" to="right0A0.250.00" type="passenger"/>
    <trip id="43" depart="19.60" from="right0A0" to="right0A0.250.00" type="passenger"/>
    <trip id="44" depart="19.70" from="right0A0" to="bottom0A0.250.00" type="passenger"/>
    <trip id="45" depart="20.00" from="left0A0" to="left0A0.250.00" type="passenger"/>
    <trip id="46" depart="20.25" from="top0A0" to="A0top0" type="passenger"/>
    <trip id="47" depart="20.75" from="right0A0" to="A0left0" type="passenger"/>
    <trip id="48" depart="20.90" from="top0A0.250.00" to="top0A0.250.00" type="passenger"/>
    <trip id="49" depart="21.50" from="right0A0.250.00" to="bottom0A0.250.00" type="passenger"/>
    <trip id="50" depart="21.85" from="bottom0A0" to="left0A0.250.00" type="passenger"/>
    <trip id="51" depart="21.85" from="right0A0" to="A0right0" type="passenger"/>
    <trip id="52" depart="22.00" from="top0A0.250.00" to="A0left0" type="passenger"/>
    <trip id="53" depart="22.35" from="top0A0.250.00" to="right0A0.250.00" type="passenger"/>
    <trip id="54" depart="22.50" from="right0A0.250.00" to="right0A0.250.00" type="passenger"/>
    <trip id="55" depart="22.55" from="bottom0A0" to="A0bottom0" type="passenger"/>
    <trip id="56" depart="22.90" from="left0A0" to="A0left0" type="passenger"/>
    <trip id="57" depart="23.35" from="left0A0" to="top0A0.250.00" type="passenger"/>
    <trip id="58" depart="23.45" from="bottom0A0.250.00" to="right0A0.250.00" type="passenger"/>
    <trip id="59" depart="23.80" from="left0A0.250.00" to="top0A0.250.00" type="passenger"/>
    <trip id="60" depart="23.80" from="left0A0.250.00" to="top0A0.250.00" type="passenger"/>
    <trip id="61" depart="24.00" from="left0A0.250.00" to="A0right0" type="passenger"/>
    <trip id="62" depart="24.50" from="bottom0A0" to="A0left0" type="passenger"/>
    <trip id="63" depart="25.15" from="top0A0.250.00" to="right0A0.250.00" type="passenger"/>
    <trip id="64" depart="25.20" from="right0A0" to="right0A0.250.00" type="passenger"/>
    <trip id="65" depart="25.70" from="right0A0" to="bottom0A0.250.00" type="passenger"/>
    <trip id="66" depart="25.75" from="right0A0.250.00" to="A0top0" type="passenger"/>
    <trip id="67" depart="25.85" from="left0A0.250.00" to="A0right0" type="passenger"/>
    <trip id="68" depart="26.35" from="top0A0.250.00" to="bottom0A0.250.00" type="passenger"/>
    <trip id="69" depart="26.65" from="left0A0.250.00" to="A0right0" type="passenger"/>
    <trip id="70" depart="26.95" from="left0A0" to="left0A0.250.00" type="passenger"/>
    <trip id="71" depart="28.10" from="right0A0" to="A0left0" type="passenger"/>
    <trip id="72" depart="28.20" from="bottom0A0.250.00" to="left0A0.250.00" type="passenger"/>
    <trip id="73" depart="29.15" from="right0A0" to="A0top0" type="passenger"/>
    <trip id="74" depart="29.15" from="top0A0.250.00" to="A0bottom0" type="passenger"/>
    <trip id="75" depart="30.00" from="top0A0.250.00" to="bottom0A0.250.00" type="passenger"/>
    <trip id="76" depart="30.40" from="top0A0.250.00" to="top0A0.250.00" type="passenger"/>
    <trip id="77" depart="30.90" from="top0A0" to="A0left0" type="passenger"/>
    <trip id="78" depart="30.90" from="right0A0.250.00" to="A0left0" type="passenger"/>
    <trip id="79" depart="31.75" from="top0A0.250.00" to="bottom0A0.250.00" type="passenger"/>
    <trip id="80" depart="31.95" from="right0A0.250.00" to="bottom0A0.250.00" type="passenger"/>
    <trip id="81" depart="32.15" from="bottom0A0.250.00" to="A0left0" type="passenger"/>
    <trip id="82" depart="32.25" from="bottom0A0.250.00" to="left0A0.250.00" type="passenger"/>
    <trip id="83" depart="33.25" from="left0A0.250.00" to="left0A0.250.00" type="passenger"/>
    <trip id="84" depart="33.80" from="top0A0.250.00" to="A0bottom0" type="passenger"/>
    <trip id="85" depart="34.50" from="right0A0" to="left0A0.250.00" type="passenger"/>
    <trip id="86" depart="35.00" from="left0A0.250.00" to="left0A0.250.00" type="passenger"/>
    <trip id="87" depart="36.50" from="top0A0" to="right0A0.250.00" type="passenger"/>
    <trip id="88" depart="36.50" from="left0A0" to="A0right0" type="passenger"/>
    <trip id="89" depart="36.85" from="left0A0.250.00" to="left0A0.250.00" type="passenger"/>
    <trip id="90" depart="37.00" from="right0A0.250.00" to="top0A0.250.00" type="passenger"/>
    <trip id="91" depart="37.55" from="left0A0.250.00" to="A0bottom0" type="passenger"/>
    <trip id="92" depart="38.05" from="right0A0.250.00" to="A0top0" type="passenger"/>
    <trip id="93" depart="38.35" from="bottom0A0.250.00" to="right0A0.250.00" type="passenger"/>
    <trip id="94" depart="38.55" from="left0A0.250.00" to="left0A0.250.00" type="passenger"/>
    <trip id="95" depart="38.60" from="top0A0" to="A0right0" type="passenger"/>
    <trip id="96" depart="38.95" from="bottom0A0.250.00" to="A0bottom0" type="passenger"/>
    <trip id="97" depart="39.05" from="top0A0" to="left0A0.250.00" type="passenger"/>
    <trip id="98" depart="39.05" from="right0A0" to="left0A0.250.00" type="passenger"/>
    <trip id="99" depart="39.15" from="right0A0" to="A0bottom0" type="passenger"/>
    <trip id="100" depart="39.65" from="bottom0A0" to="A0top0" type="passenger"/>
    <trip id="101" depart="41.05" from="top0A0" to="A0top0" type="passenger"/>
    <trip id="102" depart="41.40" from="top0A0" to="right0A0.250.00" type="passenger"/>
    <trip id="103" depart="41.60" from="right0A0.250.00" to="bottom0A0.250.00" type="passenger"/>
    <trip id="104" depart="41.65" from="bottom0A0" to="A0left0" type="passenger"/>
    <trip id="105" depart="42.00" from="left0A0" to="right0A0.250.00" type="passenger"/>
    <trip id="106" depart="42.10" from="bottom0A0" to="left0A0.250.00" type="passenger"/>
    <trip id="107" depart="42.20" from="top0A0" to="top0A0.250.00" type="passenger"/>
    <trip id="108" depart="42.45" from="top0A0.250.00" to="right0A0.250.00" type="passenger"/>
    <trip id="109" depart="42.80" from="bottom0A0.250.00" to="bottom0A0.250.00" type="passenger"/>
    <trip id="110" depart="42.95" from="bottom0A0" to="A0left0" type="passenger"/>
    <trip id="111" depart="43.15" from="right0A0" to="right0A0.250.00" type="passenger"/>
    <trip id="112" depart="43.35" from="bottom0A0.250.00" to="A0left0" type="passenger"/>
    <trip id="113" depart="43.75" from="bottom0A0" to="A0top0" type="passenger"/>
    <trip id="114" depart="44.60" from="right0A0" to="right0A0.250.00" type="passenger"/>
    <trip id="115" depart="44.90" from="left0A0" to="bottom0A0.250.00" type="passenger"/>
    <trip id="116" depart="44.90" from="right0A0" to="A0bottom0" type="passenger"/>
    <trip id="117" depart="45.00" from="bottom0A0.250.00" to="A0left0" type="passenger"/>
    <trip id="118" depart="45.05" from="top0A0.250.00" to="left0A0.250.00" type="passenger"/>
    <trip id="119" depart="45.05" from="bottom0A0" to="top0A0.250.00" type="passenger"/>
    <trip id="120" depart="46.30" from="left0A0.250.00" to="A0top0" type="passenger"/>
    <trip id="121" depart="46.35" from="bottom0A0.250.00" to="A0bottom0" type="passenger"/>
    <trip id="122" depart="46.65" from="right0A0" to="A0bottom0" type="passenger"/>
    <trip id="123" depart="47.40" from="bottom0A0" to="bottom0A0.250.00" type="passenger"/>
    <trip id="124" depart="48.00" from="bottom0A0" to="A0top0" type="passenger"/>
    <trip id="125" depart="48.15" from="top0A0" to="A0bottom0" type="passenger"/>
    <trip id="126" depart="49.20" from="right0A0" to="A0right0" type="passenger"/>
    <trip id="127" depart="49.55" from="top0A0.250.00" to="right0A0.250.00" type="passenger"/>
    <trip id="128" depart="49.90" from="top0A0.250.00" to="bottom0A0.250.00" type="passenger"/>
    <trip id="129" depart="50.20" from="left0A0" to="left0A0.250.00" type="passenger"/>
    <trip id="130" depart="50.35" from="left0A0" to="right0A0.250.00" type="passenger"/>
    <trip id="131" depart="50.60" from="right0A0" to="A0right0" type="passenger"/>
    <trip id="132" depart="51.70" from="top0A0.250.00" to="A0top0" type="passenger"/>
    <trip id="133" depart="51.80" from="left0A0" to="bottom0A0.250.00" type="passenger"/>
    <trip id="134" depart="51.80" from="bottom0A0.250.00" to="A0left0" type="passenger"/>
    <trip id="135" depart="52.30" from="top0A0" to="bottom0A0.250.00" type="passenger"/>
    <trip id="136" depart="52.95" from="right0A0.250.00" to="A0bottom0" type="passenger"/>
    <trip id="137" depart="53.40" from="left0A0.250.00" to="top0A0.250.00" type="passenger"/>
    <trip id="138" depart="53.85" from="top0A0" to="top0A0.250.00" type="passenger"/>
    <trip id="139" depart="54.50" from="bottom0A0" to="top0A0.250.00" type="passenger"/>
    <trip id="140" depart="54.60" from="top0A0" to="A0bottom0" type="passenger"/>
    <trip id="141" depart="54.70" from="top0A0" to="A0left0" type="passenger"/>
    <trip id="142" depart="54.80" from="bottom0A0.250.00" to="A0left0" type="passenger"/>
    <trip id="143" depart="55.20" from="bottom0A0.250.00" to="A0bottom0" type="passenger"/>
    <trip id="144" depart="55.30" from="left0A0" to="bottom0A0.250.00" type="passenger"/>
    <trip id="145" depart="55.35" from="bottom0A0" to="bottom0A0.250.00" type="passenger"/>
    <trip id="146" depart="55.40" from="right0A0.250.00" to="bottom0A0.250.00" type="passenger"/>
    <trip id="147" depart="56.45" from="right0A0" to="top0A0.250.00" type="passenger"/>
    <trip id="148" depart="56.65" from="left0A0.250.00" to="A0bottom0" type="passenger"/>
    <trip id="149" depart="56.80" from="left0A0.250.00" to="left0A0.250.00" type="passenger"/>
    <trip id="150" depart="56.90" from="right0A0" to="A0right0" type="passenger"/>
    <trip id="151" depart="58.10" from="top0A0.250.00" to="A0right0" type="passenger"/>
    <trip id="152" depart="58.75" from="top0A0.250.00" to="A0right0" type="passenger"/>
    <trip id="153" depart="60.50" from="left0A0.250.00" to="A0top0" type="passenger"/>
    <trip id="154" depart="60.50" from="bottom0A0.250.00" to="right0A0.250.00" type="passenger"/>
    <trip id="155" depart="60.65" from="top0A0" to="left0A0.250.00" type="passenger"/>
    <trip id="156" depart="61.15" from="right0A0.250.00" to="bottom0A0.250.00" type="passenger"/>
    <trip id="157" depart="61.55" from="left0A0" to="right0A0.250.00" type="passenger"/>
    <trip id="158" depart="61.60" from="top0A0" to="A0left0" type="passenger"/>
    <trip id="159" depart="62.50" from="right0A0" to="left0A0.250.00" type="passenger"/>
    <trip id="160" depart="63.15" from="top0A0" to="A0top0" type="passenger"/>
    <trip id="161" depart="63.45" from="bottom0A0" to="bottom0A0.250.00" type="passenger"/>
    <trip id="162" depart="63.65" from="right0A0" to="A0bottom0" type="passenger"/>
    <trip id="163" depart="64.40" from="left0A0.250.00" to="A0left0" type="passenger"/>
    <trip id="164" depart="64.85" from="top0A0" to="A0top0" type="passenger"/>
    <trip id="165" depart="64.95" from="bottom0A0.250.00" to="left0A0.250.00" type="passenger"/>
    <trip id="166" depart="65.60" from="right0A0" to="A0right0" type="passenger"/>
    <trip id="167" depart="65.70" from="left0A0" to="A0top0" type="passenger"/>
    <trip id="168" depart="66.50" from="left0A0" to="right0A0.250.00" type="passenger"/>
    <trip id="169" depart="67.90" from="right0A0.250.00" to="A0right0" type="passenger"/>
    <trip id="170" depart="68.20" from="right0A0.250.00" to="A0bottom0" type="passenger"/>
    <trip id="171" depart="68.25" from="bottom0A0" to="left0A0.250.00" type="passenger"/>
    <trip id="172" depart="68.90" from="bottom0A0" to="right0A0.250.00" type="passenger"/>
    <trip id="173" depart="69.30" from="left0A0" to="A0right0" type="passenger"/>
    <trip id="174" depart="71.35" from="right0A0" to="A0bottom0" type="passenger"/>
    <trip id="175" depart="71.55" from="top0A0.250.00" to="top0A0.250.00" type="passenger"/>
    <trip id="176" depart="71.60" from="top0A0.250.00" to="A0left0" type="passenger"/>
    <trip id="177" depart="71.85" from="right0A0" to="A0left0" type="passenger"/>
    <trip id="178" depart="72.00" from="right0A0" to="right0A0.250.00" type="passenger"/>
    <trip id="179" depart="72.60" from="right0A0.250.00" to="right0A0.250.00" type="passenger"/>
    <trip id="180" depart="72.70" from="left0A0" to="A0top0" type="passenger"/>
    <trip id="181" depart="72.80" from="bottom0A0.250.00" to="A0left0" type="passenger"/>
    <trip id="182" depart="73.20" from="right0A0" to="top0A0.250.00" type="passenger"/>
    <trip id="183" depart="73.30" from="left0A0.250.00" to="bottom0A0.250.00" type="passenger"/>
    <trip id="184" depart="73.60" from="bottom0A0.250.00" to="A0top0" type="passenger"/>
    <trip id="185" depart="73.85" from="left0A0.250.00" to="A0left0" type="passenger"/>
    <trip id="186" depart="74.10" from="top0A0.250.00" to="top0A0.250.00" type="passenger"/>
    <trip id="187" depart="74.40" from="bottom0A0" to="A0left0" type="passenger"/>
    <trip id="188" depart="74.45" from="bottom0A0" to="right0A0.250.00" type="passenger"/>
    <trip id="189" depart="75.15" from="right0A0.250.00" to="top0A0.250.00" type="passenger"/>
    <trip id="190" depart="75.20" from="left0A0" to="A0right0" type="passenger"/>
    <trip id="191" depart="75.30" from="right0A0.250.00" to="top0A0.250.00" type="passenger"/>
    <trip id="192" depart="75.35" from="top0A0" to="right0A0.250.00" type="passenger"/>
    <trip id="193" depart="75.35" from="bottom0A0.250.00" to="top0A0.250.00" type="passenger"/>
    <trip id="194" depart="75.40" from="right0A0.250.00" to="bottom0A0.250.00" type="passenger"/>
    <trip id="195" depart="75.75" from="right0A0" to="left0A0.250.00" type="passenger"/>
    <trip id="196" depart="75.75" from="right0A0" to="top0A0.250.00" type="passenger"/>
    <trip id="197" depart="75.80" from="top0A0" to="A0top0" type="passenger"/>
    <trip id="198" depart="76.60" from="right0A0" to="top0A0.250.00" type="passenger"/>
    <trip id="199" depart="76.70" from="top0A0.250.00" to="right0A0.250.00" type="passenger"/>
    <trip id="200" depart="76.75" from="right0A0" to="A0left0" type="passenger"/>
    <trip id="201" depart="77.25" from="top0A0" to="A0bottom0" type="passenger"/>
    <trip id="202" depart="77.30" from="right0A0" to="bottom0A0.250.00" type="passenger"/>
    <trip id="203" depart="77.85" from="bottom0A0" to="right0A0.250.00" type="passenger"/>
    <trip id="204" depart="78.70" from="bottom0A0.250.00" to="A0top0" type="passenger"/>
    <trip id="205" depart="78.90" from="top0A0.250.00" to="A0left0" type="passenger"/>
    <trip id="206" depart="78.90" from="top0A0.250.00" to="A0top0" type="passenger"/>
    <trip id="207" depart="79.45" from="top0A0.250.00" to="A0top0" type="passenger"/>
    <trip id="208" depart="80.10" from="bottom0A0" to="right0A0.250.00" type="passenger"/>
    <trip id="209" depart="80.40" from="right0A0" to="bottom0A0.250.00" type="passenger"/>
    <trip id="210" depart="81.70" from="top0A0.250.00" to="A0right0" type="passenger"/>
    <trip id="211" depart="82.90" from="top0A0.250.00" to="A0right0" type="passenger"/>
    <trip id="212" depart="83.35" from="left0A0" to="bottom0A0.250.00" type="passenger"/>
    <trip id="213" depart="84.00" from="right0A0" to="bottom0A0.250.00" type="passenger"/>
    <trip id="214" depart="84.25" from="top0A0.250.00" to="bottom0A0.250.00" type="passenger"/>
    <trip id="215" depart="86.35" from="right0A0.250.00" to="top0A0.250.00" type="passenger"/>
    <trip id="216" depart="87.50" from="top0A0" to="A0bottom0" type="passenger"/>
    <trip id="217" depart="87.95" from="left0A0" to="A0top0" type="passenger"/>
    <trip id="218" depart="88.60" from="bottom0A0" to="A0bottom0" type="passenger"/>
    <trip id="219" depart="88.85" from="left0A0" to="A0right0" type="passenger"/>
    <trip id="220" depart="89.15" from="left0A0" to="left0A0.250.00" type="passenger"/>
    <trip id="221" depart="89.30" from="left0A0" to="top0A0.250.00" type="passenger"/>
    <trip id="222" depart="89.65" from="right0A0.250.00" to="right0A0.250.00" type="passenger"/>
    <trip id="223" depart="89.70" from="top0A0.250.00" to="A0left0" type="passenger"/>
    <trip id="224" depart="90.10" from="left0A0.250.00" to="A0bottom0" type="passenger"/>
    <trip id="225" depart="91.35" from="right0A0.250.00" to="A0left0" type="passenger"/>
    <trip id="226" depart="91.60" from="left0A0" to="bottom0A0.250.00" type="passenger"/>
    <trip id="227" depart="92.15" from="top0A0" to="A0right0" type="passenger"/>
    <trip id="228" depart="92.15" from="bottom0A0" to="A0top0" type="passenger"/>
    <trip id="229" depart="92.25" from="left0A0.250.00" to="A0top0" type="passenger"/>
    <trip id="230" depart="92.55" from="left0A0.250.00" to="A0top0" type="passenger"/>
    <trip id="231" depart="92.75" from="left0A0" to="bottom0A0.250.00" type="passenger"/>
    <trip id="232" depart="93.25" from="right0A0" to="A0left0" type="passenger"/>
    <trip id="233" depart="93.25" from="right0A0.250.00" to="A0bottom0" type="passenger"/>
    <trip id="234" depart="94.65" from="top0A0.250.00" to="top0A0.250.00" type="passenger"/>
    <trip id="235" depart="94.70" from="left0A0" to="bottom0A0.250.00" type="passenger"/>
    <trip id="236" depart="95.55" from="right0A0.250.00" to="bottom0A0.250.00" type="passenger"/>
    <trip id="237" depart="96.20" from="top0A0.250.00" to="bottom0A0.250.00" type="passenger"/>
    <trip id="238" depart="96.25" from="top0A0" to="A0top0" type="passenger"/>
    <trip id="239" depart="96.40" from="bottom0A0" to="bottom0A0.250.00" type="passenger"/>
    <trip id="240" depart="96.85" from="bottom0A0" to="A0bottom0" type="passenger"/>
    <trip id="241" depart="96.90" from="right0A0.250.00" to="right0A0.250.00" type="passenger"/>
    <trip id="242" depart="97.25" from="top0A0.250.00" to="right0A0.250.00" type="passenger"/>
    <trip id="243" depart="97.85" from="top0A0" to="A0bottom0" type="passenger"/>
    <trip id="244" depart="97.90" from="right0A0" to="left0A0.250.00" type="passenger"/>
    <trip id="245" depart="98.35" from="top0A0" to="bottom0A0.250.00" type="passenger"/>
    <trip id="246" depart="98.50" from="left0A0" to="top0A0.250.00" type="passenger"/>
    <trip id="247" depart="102.75" from="right0A0.250.00" to="A0bottom0" type="passenger"/>
    <trip id="248" depart="103.10" from="left0A0.250.00" to="A0left0" type="passenger"/>
    <trip id="249" depart="103.15" from="left0A0" to="top0A0.250.00" type="passenger"/>
    <trip id="250" depart="103.65" from="top0A0.250.00" to="bottom0A0.250.00" type="passenger"/>
    <trip id="251" depart="104.15" from="bottom0A0" to="bottom0A0.250.00" type="passenger"/>
    <trip id="252" depart="105.40" from="left0A0" to="A0right0" type="passenger"/>
    <trip id="253" depart="105.95" from="left0A0" to="A0bottom0" type="passenger"/>
    <trip id="254" depart="107.00" from="bottom0A0" to="top0A0.250.00" type="passenger"/>
    <trip id="255" depart="108.15" from="right0A0" to="left0A0.250.00" type="passenger"/>
    <trip id="256" depart="109.30" from="top0A0" to="A0right0" type="passenger"/>
    <trip id="257" depart="109.30" from="top0A0" to="A0top0" type="passenger"/>
    <trip id="258" depart="109.55" from="right0A0" to="left0A0.250.00" type="passenger"/>
    <trip id="259" depart="109.65" from="bottom0A0" to="A0right0" type="passenger"/>
    <trip id="260" depart="110.05" from="right0A0" to="A0top0" type="passenger"/>
    <trip id="261" depart="110.05" from="top0A0.250.00" to="A0left0" type="passenger"/>
    <trip id="262" depart="111.05" from="top0A0.250.00" to="A0top0" type="passenger"/>
    <trip id="263" depart="112.25" from="bottom0A0.250.00" to="bottom0A0.250.00" type="passenger"/>
    <trip id="264" depart="112.25" from="bottom0A0" to="right0A0.250.00" type="passenger"/>
    <trip id="265" depart="113.20" from="right0A0" to="top0A0.250.00" type="passenger"/>
    <trip id="266" depart="113.60" from="left0A0" to="right0A0.250.00" type="passenger"/>
    <trip id="267" depart="114.10" from="bottom0A0" to="A0right0" type="passenger"/>
    <trip id="268" depart="114.80" from="top0A0.250.00" to="left0A0.250.00" type="passenger"/>
    <trip id="269" depart="115.75" from="bottom0A0.250.00" to="right0A0.250.00" type="passenger"/>
    <trip id="270" depart="115.75" from="top0A0" to="A0left0" type="passenger"/>
    <trip id="271" depart="116.45" from="bottom0A0" to="A0top0" type="passenger"/>
    <trip id="272" depart="116.95" from="right0A0" to="A0left0" type="passenger"/>
    <trip id="273" depart="117.70" from="bottom0A0.250.00" to="bottom0A0.250.00" type="passenger"/>
    <trip id="274" depart="117.75" from="top0A0.250.00" to="A0top0" type="passenger"/>
    <trip id="275" depart="118.25" from="right0A0.250.00" to="A0bottom0" type="passenger"/>
    <trip id="276" depart="118.40" from="bottom0A0" to="top0A0.250.00" type="passenger"/>
    <trip id="277" depart="119.05" from="top0A0.250.00" to="A0left0" type="passenger"/>
    <trip id="278" depart="119.15" from="right0A0.250.00" to="A0right0" type="passenger"/>
    <trip id="279" depart="119.80" from="right0A0.250.00" to="bottom0A0.250.00" type="passenger"/>
    <trip id="280" depart="120.45" from="top0A0" to="top0A0.250.00" type="passenger"/>
    <trip id="281" depart="120.55" from="left0A0" to="bottom0A0.250.00" type="passenger"/>
    <trip id="282" depart="121.65" from="top0A0" to="A0right0" type="passenger"/>
    <trip id="283" depart="121.90" from="bottom0A0.250.00" to="A0left0" type="passenger"/>
    <trip id="284" depart="122.60" from="top0A0.250.00" to="A0top0" type="passenger"/>
    <trip id="285" depart="122.75" from="right0A0" to="A0left0" type="passenger"/>
    <trip id="286" depart="123.35" from="left0A0" to="top0A0.250.00" type="passenger"/>
    <trip id="287" depart="124.35" from="right0A0" to="A0bottom0" type="passenger"/>
    <trip id="288" depart="124.55" from="right0A0.250.00" to="right0A0.250.00" type="passenger"/>
    <trip id="289" depart="124.65" from="bottom0A0.250.00" to="left0A0.250.00" type="passenger"/>
    <trip id="290" depart="124.90" from="right0A0" to="bottom0A0.250.00" type="passenger"/>
    <trip id="291" depart="125.00" from="right0A0.250.00" to="left0A0.250.00" type="passenger"/>
    <trip id="292" depart="125.20" from="bottom0A0" to="A0top0" type="passenger"/>
    <trip id="293" depart="125.60" from="top0A0.250.00" to="A0top0" type="passenger"/>
    <trip id="294" depart="126.40" from="top0A0.250.00" to="A0right0" type="passenger"/>
    <trip id="295" depart="126.40" from="top0A0.250.00" to="A0top0" type="passenger"/>
    <trip id="296" depart="126.80" from="right0A0.250.00" to="A0left0" type="passenger"/>
    <trip id="297" depart="127.15" from="right0A0" to="bottom0A0.250.00" type="passenger"/>
    <trip id="298" depart="127.30" from="right0A0.250.00" to="top0A0.250.00" type="passenger"/>
    <trip id="299" depart="129.20" from="right0A0.250.00" to="A0bottom0" type="passenger"/>
    <trip id="300" depart="129.75" from="top0A0" to="A0bottom0" type="passenger"/>
    <trip id="301" depart="129.80" from="top0A0.250.00" to="A0left0" type="passenger"/>
    <trip id="302" depart="130.40" from="right0A0.250.00" to="right0A0.250.00" type="passenger"/>
    <trip id="303" depart="130.45" from="bottom0A0" to="bottom0A0.250.00" type="passenger"/>
    <trip id="304" depart="130.50" from="bottom0A0.250.00" to="A0top0" type="passenger"/>
    <trip id="305" depart="131.00" from="right0A0" to="top0A0.250.00" type="passenger"/>
    <trip id="306" depart="131.05" from="left0A0.250.00" to="A0top0" type="passenger"/>
    <trip id="307" depart="131.05" from="right0A0.250.00" to="bottom0A0.250.00" type="passenger"/>
    <trip id="308" depart="133.70" from="bottom0A0.250.00" to="A0top0" type="passenger"/>
    <trip id="309" depart="133.80" from="left0A0" to="A0left0" type="passenger"/>
    <trip id="310" depart="134.05" from="top0A0.250.00" to="A0top0" type="passenger"/>
    <trip id="311" depart="134.10" from="right0A0.250.00" to="A0bottom0" type="passenger"/>
    <trip id="312" depart="134.65" from="left0A0.250.00" to="A0right0" type="passenger"/>
    <trip id="313" depart="134.70" from="right0A0" to="A0bottom0" type="passenger"/>
    <trip id="314" depart="135.75" from="bottom0A0" to="bottom0A0.250.00" type="passenger"/>
    <trip id="315" depart="136.95" from="right0A0" to="bottom0A0.250.00" type="passenger"/>
    <trip id="316" depart="137.20" from="left0A0" to="top0A0.250.00" type="passenger"/>
    <trip id="317" depart="137.80" from="left0A0.250.00" to="right0A0.250.00" type="passenger"/>
    <trip id="318" depart="137.95" from="left0A0" to="top0A0.250.00" type="passenger"/>
    <trip id="319" depart="138.50" from="left0A0" to="A0bottom0" type="passenger"/>
    <trip id="320" depart="138.65" from="bottom0A0" to="right0A0.250.00" type="passenger"/>
    <trip id="321" depart="138.85" from="left0A0.250.00" to="A0left0" type="passenger"/>
    <trip id="322" depart="139.35" from="top0A0.250.00" to="A0bottom0" type="passenger"/>
    <trip id="323" depart="139.85" from="left0A0.250.00" to="bottom0A0.250.00" type="passenger"/>
    <trip id="324" depart="140.40" from="bottom0A0" to="A0right0" type="passenger"/>
    <trip id="325" depart="140.80" from="top0A0.250.00" to="A0left0" type="passenger"/>
    <trip id="326" depart="141.35" from="left0A0" to="A0top0" type="passenger"/>