<?xml version="1.0" encoding="UTF-8"?>

<!-- generated on 2023-04-26 16:57:14.222896 by randomTrips.py UNKNOWN
<configuration>
    <begin value="0"/>
    <end value="900"/>
    <insertion-rate value="8000.0"/>
    <net-file value="/home/franky3er/Documents/code/HieraGLight/scenarios/grid/1x1-500m/train/98-scenario/network.net.xml"/>
    <random value="True"/>
    <random-depart value="True"/>
    <route-file value="/home/franky3er/Documents/code/HieraGLight/scenarios/grid/1x1-500m/train/98-scenario/routes.rou.xml"/>
    <seed value="98"/>
    <output-trip-file value="/home/franky3er/Documents/code/HieraGLight/scenarios/grid/1x1-500m/train/98-scenario/trips.trips.xml"/>
    <vehicle-class value="passenger"/>
</configuration>
-->

<!-- generated on 2023-04-26 16:57:14 by Eclipse SUMO duarouter Version 1.16.0
<configuration xmlns:xsi="http://www.w3.org/2001/XMLSchema-instance" xsi:noNamespaceSchemaLocation="http://sumo.dlr.de/xsd/duarouterConfiguration.xsd">

    <input>
        <net-file value="/home/franky3er/Documents/code/HieraGLight/scenarios/grid/1x1-500m/train/98-scenario/network.net.xml"/>
        <route-files value="/home/franky3er/Documents/code/HieraGLight/scenarios/grid/1x1-500m/train/98-scenario/trips.trips.xml"/>
    </input>

    <output>
        <output-file value="/home/franky3er/Documents/code/HieraGLight/scenarios/grid/1x1-500m/train/98-scenario/routes.rou.xml"/>
        <alternatives-output value="NUL"/>
    </output>

    <time>
        <begin value="0"/>
        <end value="900"/>
    </time>

    <report>
        <no-warnings value="true"/>
        <ignore-errors value="true"/>
        <no-step-log value="true"/>
    </report>

</configuration>
-->

<routes xmlns:xsi="http://www.w3.org/2001/XMLSchema-instance" xsi:noNamespaceSchemaLocation="http://sumo.dlr.de/xsd/routes_file.xsd">
    <vType id="passenger" vClass="passenger"/>
    <vehicle id="1" type="passenger" depart="1.10">
        <route edges="right0A0.250.00 A0left0"/>
    </vehicle>
    <vehicle id="4" type="passenger" depart="1.95">
        <route edges="top0A0 top0A0.250.00"/>
    </vehicle>
    <vehicle id="9" type="passenger" depart="5.10">
        <route edges="left0A0.250.00 A0right0"/>
    </vehicle>
    <vehicle id="11" type="passenger" depart="5.50">
        <route edges="right0A0 right0A0.250.00 A0top0"/>
    </vehicle>
    <vehicle id="12" type="passenger" depart="6.90">
        <route edges="left0A0.250.00 A0bottom0"/>
    </vehicle>
    <vehicle id="13" type="passenger" depart="7.20">
        <route edges="top0A0.250.00 A0right0"/>
    </vehicle>
    <vehicle id="14" type="passenger" depart="8.00">
        <route edges="top0A0.250.00 A0bottom0"/>
    </vehicle>
    <vehicle id="15" type="passenger" depart="8.20">
        <route edges="left0A0 left0A0.250.00 A0top0"/>
    </vehicle>
    <vehicle id="17" type="passenger" depart="9.35">
        <route edges="left0A0 left0A0.250.00 A0top0"/>
    </vehicle>
    <vehicle id="19" type="passenger" depart="9.95">
        <route edges="left0A0.250.00 A0bottom0"/>
    </vehicle>
    <vehicle id="20" type="passenger" depart="10.40">
        <route edges="left0A0.250.00"/>
    </vehicle>
    <vehicle id="21" type="passenger" depart="10.85">
        <route edges="left0A0 left0A0.250.00 A0bottom0"/>
    </vehicle>
    <vehicle id="25" type="passenger" depart="13.75">
        <route edges="right0A0.250.00 A0top0"/>
    </vehicle>
    <vehicle id="26" type="passenger" depart="13.85">
        <route edges="left0A0 left0A0.250.00 A0top0"/>
    </vehicle>
    <vehicle id="27" type="passenger" depart="13.95">
        <route edges="right0A0 right0A0.250.00"/>
    </vehicle>
    <vehicle id="28" type="passenger" depart="15.40">
        <route edges="bottom0A0.250.00 A0top0"/>
    </vehicle>
    <vehicle id="30" type="passenger" depart="15.75">
        <route edges="top0A0 top0A0.250.00 A0right0"/>
    </vehicle>
    <vehicle id="31" type="passenger" depart="16.45">
        <route edges="left0A0.250.00 A0right0"/>
    </vehicle>
    <vehicle id="32" type="passenger" depart="16.90">
        <route edges="right0A0.250.00 A0left0"/>
    </vehicle>
    <vehicle id="33" type="passenger" depart="17.30">
        <route edges="left0A0 left0A0.250.00 A0bottom0"/>
    </vehicle>
    <vehicle id="34" type="passenger" depart="17.75">
        <route edges="bottom0A0 bottom0A0.250.00 A0top0"/>
    </vehicle>
    <vehicle id="37" type="passenger" depart="19.70">
        <route edges="right0A0 right0A0.250.00 A0top0"/>
    </vehicle>
    <vehicle id="38" type="passenger" depart="20.25">
        <route edges="left0A0 left0A0.250.00"/>
    </vehicle>
    <vehicle id="40" type="passenger" depart="21.30">
        <route edges="bottom0A0.250.00 A0left0"/>
    </vehicle>
    <vehicle id="41" type="passenger" depart="21.80">
        <route edges="left0A0 left0A0.250.00 A0top0"/>
    </vehicle>
    <vehicle id="42" type="passenger" depart="22.05">
        <route edges="left0A0 left0A0.250.00 A0bottom0"/>
    </vehicle>
    <vehicle id="43" type="passenger" depart="22.15">
        <route edges="right0A0 right0A0.250.00 A0bottom0"/>
    </vehicle>
    <vehicle id="49" type="passenger" depart="26.05">
        <route edges="bottom0A0 bottom0A0.250.00 A0top0"/>
    </vehicle>
    <vehicle id="50" type="passenger" depart="26.05">
        <route edges="bottom0A0 bottom0A0.250.00 A0top0"/>
    </vehicle>
    <vehicle id="51" type="passenger" depart="26.20">
        <route edges="right0A0.250.00"/>
    </vehicle>
    <vehicle id="52" type="passenger" depart="26.85">
        <route edges="bottom0A0 bottom0A0.250.00 A0right0"/>
    </vehicle>
    <vehicle id="54" type="passenger" depart="28.00">
        <route edges="top0A0.250.00 A0left0"/>
    </vehicle>
    <vehicle id="56" type="passenger" depart="29.40">
        <route edges="right0A0.250.00 A0bottom0"/>
    </vehicle>
    <vehicle id="57" type="passenger" depart="29.75">
        <route edges="top0A0.250.00 A0bottom0"/>
    </vehicle>
    <vehicle id="63" type="passenger" depart="32.30">
        <route edges="left0A0 left0A0.250.00"/>
    </vehicle>
    <vehicle id="64" type="passenger" depart="32.55">
        <route edges="left0A0.250.00 A0right0"/>
    </vehicle>
    <vehicle id="66" type="passenger" depart="34.20">
        <route edges="right0A0.250.00 A0top0"/>
    </vehicle>
    <vehicle id="73" type="passenger" depart="37.15">
        <route edges="right0A0 right0A0.250.00 A0top0"/>
    </vehicle>
    <vehicle id="75" type="passenger" depart="37.80">
        <route edges="top0A0 top0A0.250.00 A0right0"/>
    </vehicle>
    <vehicle id="76" type="passenger" depart="38.60">
        <route edges="top0A0 top0A0.250.00 A0bottom0"/>
    </vehicle>
    <vehicle id="77" type="passenger" depart="38.80">
        <route edges="right0A0 right0A0.250.00 A0left0"/>
    </vehicle>
    <vehicle id="78" type="passenger" depart="39.10">
        <route edges="top0A0.250.00"/>
    </vehicle>
    <vehicle id="81" type="passenger" depart="39.75">
        <route edges="bottom0A0.250.00 A0left0"/>
    </vehicle>
    <vehicle id="83" type="passenger" depart="40.80">
        <route edges="left0A0 left0A0.250.00"/>
    </vehicle>
    <vehicle id="85" type="passenger" depart="41.20">
        <route edges="left0A0 left0A0.250.00 A0bottom0"/>
    </vehicle>
    <vehicle id="91" type="passenger" depart="44.35">
        <route edges="bottom0A0 bottom0A0.250.00 A0left0"/>
    </vehicle>
    <vehicle id="92" type="passenger" depart="45.00">
        <route edges="top0A0 top0A0.250.00"/>
    </vehicle>
    <vehicle id="94" type="passenger" depart="47.25">
        <route edges="right0A0 right0A0.250.00 A0top0"/>
    </vehicle>
    <vehicle id="95" type="passenger" depart="47.55">
        <route edges="left0A0.250.00 A0top0"/>
    </vehicle>
    <vehicle id="96" type="passenger" depart="48.25">
        <route edges="bottom0A0.250.00"/>
    </vehicle>
    <vehicle id="99" type="passenger" depart="49.70">
        <route edges="left0A0 left0A0.250.00 A0top0"/>
    </vehicle>
    <vehicle id="100" type="passenger" depart="49.90">
        <route edges="bottom0A0.250.00 A0right0"/>
    </vehicle>
    <vehicle id="101" type="passenger" depart="49.95">
        <route edges="top0A0.250.00 A0right0"/>
    </vehicle>
    <vehicle id="102" type="passenger" depart="50.05">
        <route edges="bottom0A0.250.00 A0left0"/>
    </vehicle>
    <vehicle id="103" type="passenger" depart="50.15">
        <route edges="bottom0A0.250.00 A0top0"/>
    </vehicle>
    <vehicle id="106" type="passenger" depart="51.80">
        <route edges="bottom0A0 bottom0A0.250.00 A0top0"/>
    </vehicle>
    <vehicle id="108" type="passenger" depart="52.60">
        <route edges="left0A0.250.00 A0top0"/>
    </vehicle>
    <vehicle id="111" type="passenger" depart="53.45">
        <route edges="bottom0A0 bottom0A0.250.00 A0left0"/>
    </vehicle>
    <vehicle id="113" type="passenger" depart="54.25">
        <route edges="top0A0 top0A0.250.00 A0left0"/>
    </vehicle>
    <vehicle id="114" type="passenger" depart="54.30">
        <route edges="right0A0.250.00 A0bottom0"/>
    </vehicle>
    <vehicle id="116" type="passenger" depart="57.45">
        <route edges="top0A0.250.00 A0right0"/>
    </vehicle>
    <vehicle id="120" type="passenger" depart="57.85">
        <route edges="left0A0 left0A0.250.00 A0right0"/>
    </vehicle>
    <vehicle id="125" type="passenger" depart="58.90">
        <route edges="bottom0A0 bottom0A0.250.00 A0right0"/>
    </vehicle>
    <vehicle id="128" type="passenger" depart="60.20">
        <route edges="top0A0 top0A0.250.00"/>
    </vehicle>
    <vehicle id="133" type="passenger" depart="61.45">
        <route edges="bottom0A0 bottom0A0.250.00 A0left0"/>
    </vehicle>
    <vehicle id="134" type="passenger" depart="61.70">
        <route edges="bottom0A0.250.00 A0top0"/>
    </vehicle>
    <vehicle id="137" type="passenger" depart="64.35">
        <route edges="left0A0 left0A0.250.00 A0right0"/>
    </vehicle>
    <vehicle id="139" type="passenger" depart="64.65">
        <route edges="left0A0 left0A0.250.00 A0right0"/>
    </vehicle>
    <vehicle id="141" type="passenger" depart="65.95">
        <route edges="left0A0.250.00 A0right0"/>
    </vehicle>
    <vehicle id="148" type="passenger" depart="68.05">
        <route edges="right0A0.250.00 A0left0"/>
    </vehicle>
    <vehicle id="149" type="passenger" depart="69.05">
        <route edges="bottom0A0.250.00 A0top0"/>
    </vehicle>
    <vehicle id="153" type="passenger" depart="70.45">
        <route edges="right0A0.250.00 A0left0"/>
    </vehicle>
    <vehicle id="155" type="passenger" depart="72.85">
        <route edges="left0A0.250.00 A0bottom0"/>
    </vehicle>
    <vehicle id="156" type="passenger" depart="73.10">
        <route edges="bottom0A0.250.00 A0right0"/>
    </vehicle>
    <vehicle id="158" type="passenger" depart="74.60">
        <route edges="bottom0A0.250.00 A0right0"/>
    </vehicle>
    <vehicle id="159" type="passenger" depart="74.70">
        <route edges="left0A0 left0A0.250.00 A0bottom0"/>
    </vehicle>
    <vehicle id="162" type="passenger" depart="76.00">
        <route edges="left0A0.250.00"/>
    </vehicle>
    <vehicle id="164" type="passenger" depart="76.60">
        <route edges="right0A0 right0A0.250.00"/>
    </vehicle>
    <vehicle id="167" type="passenger" depart="78.35">
        <route edges="bottom0A0.250.00"/>
    </vehicle>
    <vehicle id="168" type="passenger" depart="78.55">
        <route edges="right0A0 right0A0.250.00 A0left0"/>
    </vehicle>
    <vehicle id="170" type="passenger" depart="78.80">
        <route edges="bottom0A0.250.00 A0right0"/>
    </vehicle>
    <vehicle id="171" type="passenger" depart="79.35">
        <route edges="top0A0 top0A0.250.00 A0right0"/>
    </vehicle>
    <vehicle id="172" type="passenger" depart="79.85">
        <route edges="top0A0.250.00 A0bottom0"/>
    </vehicle>
    <vehicle id="180" type="passenger" depart="82.15">
        <route edges="top0A0.250.00 A0bottom0"/>
    </vehicle>
    <vehicle id="181" type="passenger" depart="82.45">
        <route edges="left0A0 left0A0.250.00 A0top0"/>
    </vehicle>
    <vehicle id="182" type="passenger" depart="82.45">
        <route edges="bottom0A0 bottom0A0.250.00"/>
    </vehicle>
    <vehicle id="183" type="passenger" depart="82.55">
        <route edges="right0A0 right0A0.250.00"/>
    </vehicle>
    <vehicle id="185" type="passenger" depart="83.20">
        <route edges="right0A0 right0A0.250.00 A0left0"/>
    </vehicle>
    <vehicle id="186" type="passenger" depart="83.35">
        <route edges="bottom0A0 bottom0A0.250.00 A0left0"/>
    </vehicle>
    <vehicle id="187" type="passenger" depart="83.40">
        <route edges="right0A0 right0A0.250.00 A0bottom0"/>
    </vehicle>
    <vehicle id="188" type="passenger" depart="83.50">
        <route edges="top0A0 top0A0.250.00 A0bottom0"/>
    </vehicle>
    <vehicle id="191" type="passenger" depart="84.50">
        <route edges="top0A0.250.00 A0right0"/>
    </vehicle>
    <vehicle id="192" type="passenger" depart="84.55">
        <route edges="bottom0A0 bottom0A0.250.00 A0left0"/>
    </vehicle>
    <vehicle id="193" type="passenger" depart="84.80">
        <route edges="bottom0A0.250.00 A0left0"/>
    </vehicle>
    <vehicle id="194" type="passenger" depart="84.85">
        <route edges="bottom0A0 bottom0A0.250.00 A0top0"/>
    </vehicle>
    <vehicle id="195" type="passenger" depart="85.75">
        <route edges="right0A0.250.00 A0left0"/>
    </vehicle>
    <vehicle id="196" type="passenger" depart="86.50">
        <route edges="bottom0A0.250.00"/>
    </vehicle>
    <vehicle id="198" type="passenger" depart="87.15">
        <route edges="top0A0 top0A0.250.00 A0right0"/>
    </vehicle>
    <vehicle id="199" type="passenger" depart="87.25">
        <route edges="left0A0 left0A0.250.00 A0right0"/>
    </vehicle>
    <vehicle id="202" type="passenger" depart="88.30">
        <route edges="left0A0.250.00 A0bottom0"/>
    </vehicle>
    <vehicle id="204" type="passenger" depart="88.80">
        <route edges="bottom0A0.250.00"/>
    </vehicle>
    <vehicle id="205" type="passenger" depart="89.45">
        <route edges="right0A0.250.00"/>
    </vehicle>
    <vehicle id="207" type="passenger" depart="90.55">
        <route edges="top0A0 top0A0.250.00 A0bottom0"/>
    </vehicle>
    <vehicle id="213" type="passenger" depart="94.35">
        <route edges="right0A0 right0A0.250.00"/>
    </vehicle>
    <vehicle id="214" type="passenger" depart="95.10">
        <route edges="top0A0 top0A0.250.00 A0bottom0"/>
    </vehicle>
    <vehicle id="216" type="passenger" depart="96.20">
        <route edges="left0A0.250.00 A0bottom0"/>
    </vehicle>
    <vehicle id="217" type="passenger" depart="96.30">
        <route edges="top0A0.250.00 A0bottom0"/>
    </vehicle>
    <vehicle id="218" type="passenger" depart="96.45">
        <route edges="right0A0.250.00"/>
    </vehicle>
    <vehicle id="220" type="passenger" depart="96.95">
        <route edges="top0A0.250.00 A0right0"/>
    </vehicle>
    <vehicle id="221" type="passenger" depart="97.25">
        <route edges="bottom0A0 bottom0A0.250.00 A0left0"/>
    </vehicle>
    <vehicle id="222" type="passenger" depart="98.05">
        <route edges="left0A0 left0A0.250.00 A0top0"/>
    </vehicle>
    <vehicle id="223" type="passenger" depart="98.70">
        <route edges="right0A0.250.00 A0top0"/>
    </vehicle>
    <vehicle id="225" type="passenger" depart="98.85">
        <route edges="right0A0 right0A0.250.00 A0bottom0"/>
    </vehicle>
    <vehicle id="226" type="passenger" depart="99.00">
        <route edges="bottom0A0.250.00"/>
    </vehicle>
    <vehicle id="227" type="passenger" depart="99.20">
        <route edges="right0A0 right0A0.250.00"/>
    </vehicle>
    <vehicle id="229" type="passenger" depart="99.80">
        <route edges="top0A0 top0A0.250.00"/>
    </vehicle>
    <vehicle id="237" type="passenger" depart="104.00">
        <route edges="left0A0.250.00 A0bottom0"/>
    </vehicle>
    <vehicle id="239" type="passenger" depart="104.45">
        <route edges="bottom0A0.250.00 A0right0"/>
    </vehicle>
    <vehicle id="240" type="passenger" depart="105.60">
        <route edges="bottom0A0.250.00 A0top0"/>
    </vehicle>
    <vehicle id="242" type="passenger" depart="108.50">
        <route edges="bottom0A0.250.00 A0top0"/>
    </vehicle>
    <vehicle id="243" type="passenger" depart="109.15">
        <route edges="left0A0.250.00 A0bottom0"/>
    </vehicle>
    <vehicle id="244" type="passenger" depart="109.55">
        <route edges="left0A0 left0A0.250.00 A0bottom0"/>
    </vehicle>
    <vehicle id="245" type="passenger" depart="110.00">
        <route edges="right0A0 right0A0.250.00"/>
    </vehicle>
    <vehicle id="246" type="passenger" depart="110.05">
        <route edges="left0A0 left0A0.250.00 A0bottom0"/>
    </vehicle>
    <vehicle id="248" type="passenger" depart="110.50">
        <route edges="top0A0.250.00 A0right0"/>
    </vehicle>
    <vehicle id="249" type="passenger" depart="110.60">
        <route edges="top0A0.250.00"/>
    </vehicle>
    <vehicle id="251" type="passenger" depart="112.00">
        <route edges="right0A0.250.00 A0left0"/>
    </vehicle>
    <vehicle id="254" type="passenger" depart="112.40">
        <route edges="bottom0A0 bottom0A0.250.00"/>
    </vehicle>
    <vehicle id="257" type="passenger" depart="113.20">
        <route edges="left0A0 left0A0.250.00 A0bottom0"/>
    </vehicle>
    <vehicle id="258" type="passenger" depart="113.35">
        <route edges="bottom0A0 bottom0A0.250.00"/>
    </vehicle>
    <vehicle id="263" type="passenger" depart="117.80">
        <route edges="top0A0.250.00 A0left0"/>
    </vehicle>
    <vehicle id="269" type="passenger" depart="119.60">
        <route edges="top0A0.250.00 A0bottom0"/>
    </vehicle>
    <vehicle id="270" type="passenger" depart="120.20">
        <route edges="bottom0A0.250.00 A0top0"/>
    </vehicle>
    <vehicle id="271" type="passenger" depart="120.25">
        <route edges="left0A0 left0A0.250.00"/>
    </vehicle>
    <vehicle id="273" type="passenger" depart="120.95">
        <route edges="bottom0A0 bottom0A0.250.00 A0top0"/>
    </vehicle>
    <vehicle id="274" type="passenger" depart="123.10">
        <route edges="bottom0A0.250.00 A0left0"/>
    </vehicle>
    <vehicle id="275" type="passenger" depart="123.80">
        <route edges="right0A0 right0A0.250.00 A0left0"/>
    </vehicle>
    <vehicle id="279" type="passenger" depart="124.80">
        <route edges="left0A0 left0A0.250.00 A0right0"/>
    </vehicle>
    <vehicle id="280" type="passenger" depart="126.85">
        <route edges="bottom0A0.250.00 A0left0"/>
    </vehicle>
    <vehicle id="281" type="passenger" depart="127.90">
        <route edges="top0A0.250.00 A0bottom0"/>
    </vehicle>
    <vehicle id="292" type="passenger" depart="133.25">
        <route edges="right0A0 right0A0.250.00 A0top0"/>
    </vehicle>
    <vehicle id="293" type="passenger" depart="133.40">
        <route edges="right0A0 right0A0.250.00"/>
    </vehicle>
    <vehicle id="294" type="passenger" depart="133.45">
        <route edges="right0A0.250.00 A0top0"/>
    </vehicle>
    <vehicle id="295" type="passenger" depart="133.45">
        <route edges="left0A0.250.00 A0top0"/>
    </vehicle>
    <vehicle id="298" type="passenger" depart="135.50">
        <route edges="bottom0A0.250.00 A0top0"/>
    </vehicle>
    <vehicle id="302" type="passenger" depart="137.85">
        <route edges="bottom0A0 bottom0A0.250.00 A0right0"/>
    </vehicle>
    <vehicle id="303" type="passenger" depart="138.95">
        <route edges="bottom0A0 bottom0A0.250.00 A0left0"/>
    </vehicle>
    <vehicle id="309" type="passenger" depart="140.75">
        <route edges="bottom0A0.250.00 A0left0"/>
    </vehicle>
    <vehicle id="310" type="passenger" depart="141.00">
        <route edges="right0A0 right0A0.250.00 A0bottom0"/>
    </vehicle>
    <vehicle id="311" type="passenger" depart="141.20">
        <route edges="left0A0.250.00 A0right0"/>
    </vehicle>
    <vehicle id="312" type="passenger" depart="141.80">
        <route edges="left0A0.250.00 A0bottom0"/>
    </vehicle>
    <vehicle id="313" type="passenger" depart="142.40">
        <route edges="right0A0.250.00 A0top0"/>
    </vehicle>
    <vehicle id="314" type="passenger" depart="142.50">
        <route edges="right0A0 right0A0.250.00 A0top0"/>
    </vehicle>
    <vehicle id="317" type="passenger" depart="142.90">
        <route edges="right0A0.250.00"/>
    </vehicle>
    <vehicle id="319" type="passenger" depart="143.20">
        <route edges="bottom0A0 bottom0A0.250.00 A0right0"/>
    </vehicle>
    <vehicle id="320" type="passenger" depart="143.90">
        <route edges="bottom0A0 bottom0A0.250.00"/>
    </vehicle>
    <vehicle id="323" type="passenger" depart="147.15">
        <route edges="top0A0 top0A0.250.00 A0bottom0"/>
    </vehicle>
    <vehicle id="326" type="passenger" depart="148.45">
        <route edges="bottom0A0 bottom0A0.250.00"/>
    </vehicle>
    <vehicle id="331" type="passenger" depart="151.45">
        <route edges="left0A0.250.00 A0top0"/>
    </vehicle>
    <vehicle id="334" type="passenger" depart="152.60">
        <route edges="top0A0.250.00 A0right0"/>
    </vehicle>
    <vehicle id="336" type="passenger" depart="153.80">
        <route edges="top0A0.250.00 A0bottom0"/>
    </vehicle>
    <vehicle id="338" type="passenger" depart="154.40">
        <route edges="right0A0.250.00 A0bottom0"/>
    </vehicle>
    <vehicle id="339" type="passenger" depart="154.60">
        <route edges="left0A0.250.00 A0right0"/>
    </vehicle>
    <vehicle id="340" type="passenger" depart="154.90">
        <route edges="top0A0 top0A0.250.00 A0right0"/>
    </vehicle>
    <vehicle id="341" type="passenger" depart="155.50">
        <route edges="left0A0.250.00"/>
    </vehicle>
    <vehicle id="342" type="passenger" depart="155.60">
        <route edges="left0A0.250.00 A0right0"/>
    </vehicle>
    <vehicle id="344" type="passenger" depart="156.35">
        <route edges="left0A0.250.00"/>
    </vehicle>
    <vehicle id="346" type="passenger" depart="156.75">
        <route edges="right0A0 right0A0.250.00"/>
    </vehicle>
    <vehicle id="349" type="passenger" depart="157.90">
        <route edges="left0A0.250.00 A0bottom0"/>
    </vehicle>
    <vehicle id="350" type="passenger" depart="158.80">
        <route edges="left0A0.250.00 A0bottom0"/>
    </vehicle>
    <vehicle id="355" type="passenger" depart="166.15">
        <route edges="left0A0.250.00 A0top0"/>
    </vehicle>
    <vehicle id="358" type="passenger" depart="167.25">
        <route edges="right0A0.250.00 A0top0"/>
    </vehicle>
    <vehicle id="359" type="passenger" depart="167.85">
        <route edges="left0A0 left0A0.250.00"/>
    </vehicle>
    <vehicle id="360" type="passenger" depart="167.95">
        <route edges="right0A0 right0A0.250.00 A0left0"/>
    </vehicle>
    <vehicle id="361" type="passenger" depart="168.20">
        <route edges="left0A0.250.00 A0top0"/>
    </vehicle>
    <vehicle id="366" type="passenger" depart="169.30">
        <route edges="left0A0.250.00 A0bottom0"/>
    </vehicle>
    <vehicle id="368" type="passenger" depart="169.50">
        <route edges="left0A0 left0A0.250.00 A0bottom0"/>
    </vehicle>
    <vehicle id="370" type="passenger" depart="169.95">
        <route edges="top0A0.250.00"/>
    </vehicle>
    <vehicle id="372" type="passenger" depart="170.75">
        <route edges="bottom0A0.250.00 A0left0"/>
    </vehicle>
    <vehicle id="373" type="passenger" depart="170.80">
        <route edges="left0A0.250.00"/>
    </vehicle>
    <vehicle id="374" type="passenger" depart="170.90">
        <route edges="right0A0 right0A0.250.00 A0left0"/>
    </vehicle>
    <vehicle id="375" type="passenger" depart="171.05">
        <route edges="bottom0A0.250.00"/>
    </vehicle>
    <vehicle id="379" type="passenger" depart="173.00">
        <route edges="left0A0 left0A0.250.00"/>
    </vehicle>
    <vehicle id="380" type="passenger" depart="173.15">
        <route edges="left0A0.250.00 A0top0"/>
    </vehicle>
    <vehicle id="381" type="passenger" depart="173.30">
        <route edges="bottom0A0.250.00 A0left0"/>
    </vehicle>
    <vehicle id="385" type="passenger" depart="173.75">
        <route edges="left0A0.250.00 A0top0"/>
    </vehicle>
    <vehicle id="389" type="passenger" depart="174.95">
        <route edges="left0A0.250.00 A0top0"/>
    </vehicle>
    <vehicle id="391" type="passenger" depart="175.80">
        <route edges="left0A0.250.00 A0top0"/>
    </vehicle>
    <vehicle id="392" type="passenger" depart="175.90">
        <route edges="bottom0A0.250.00 A0right0"/>
    </vehicle>
    <vehicle id="395" type="passenger" depart="178.80">
        <route edges="bottom0A0.250.00 A0top0"/>
    </vehicle>
    <vehicle id="396" type="passenger" depart="178.90">
        <route edges="top0A0 top0A0.250.00"/>
    </vehicle>
    <vehicle id="397" type="passenger" depart="179.90">
        <route edges="left0A0 left0A0.250.00"/>
    </vehicle>
    <vehicle id="400" type="passenger" depart="181.25">
        <route edges="left0A0.250.00 A0top0"/>
    </vehicle>
    <vehicle id="402" type="passenger" depart="181.45">
        <route edges="bottom0A0 bottom0A0.250.00 A0right0"/>
    </vehicle>
    <vehicle id="404" type="passenger" depart="182.25">
        <route edges="left0A0.250.00 A0top0"/>
    </vehicle>
    <vehicle id="405" type="passenger" depart="182.45">
        <route edges="right0A0.250.00 A0top0"/>
    </vehicle>
    <vehicle id="407" type="passenger" depart="182.80">
        <route edges="left0A0 left0A0.250.00"/>
    </vehicle>
    <vehicle id="408" type="passenger" depart="183.45">
        <route edges="bottom0A0 bottom0A0.250.00 A0top0"/>
    </vehicle>
    <vehicle id="409" type="passenger" depart="185.50">
        <route edges="bottom0A0 bottom0A0.250.00 A0top0"/>
    </vehicle>
    <vehicle id="411" type="passenger" depart="186.85">
        <route edges="left0A0.250.00"/>
    </vehicle>
    <vehicle id="413" type="passenger" depart="187.40">
        <route edges="right0A0.250.00 A0top0"/>
    </vehicle>
    <vehicle id="414" type="passenger" depart="187.55">
        <route edges="left0A0 left0A0.250.00 A0right0"/>
    </vehicle>
    <vehicle id="415" type="passenger" depart="187.60">
        <route edges="right0A0 right0A0.250.00 A0top0"/>
    </vehicle>
    <vehicle id="417" type="passenger" depart="187.85">
        <route edges="top0A0 top0A0.250.00 A0right0"/>
    </vehicle>
    <vehicle id="418" type="passenger" depart="188.40">
        <route edges="right0A0 right0A0.250.00 A0left0"/>
    </vehicle>
    <vehicle id="419" type="passenger" depart="188.60">
        <route edges="bottom0A0.250.00"/>
    </vehicle>
    <vehicle id="424" type="passenger" depart="190.20">
        <route edges="bottom0A0.250.00 A0left0"/>
    </vehicle>
    <vehicle id="425" type="passenger" depart="191.10">
        <route edges="right0A0 right0A0.250.00 A0left0"/>
    </vehicle>
    <vehicle id="426" type="passenger" depart="191.10">
        <route edges="top0A0 top0A0.250.00"/>
    </vehicle>
    <vehicle id="428" type="passenger" depart="192.55">
        <route edges="bottom0A0.250.00 A0right0"/>
    </vehicle>
    <vehicle id="432" type="passenger" depart="196.60">
        <route edges="left0A0.250.00"/>
    </vehicle>
    <vehicle id="433" type="passenger" depart="196.80">
        <route edges="bottom0A0 bottom0A0.250.00"/>
    </vehicle>
    <vehicle id="434" type="passenger" depart="197.25">
        <route edges="bottom0A0 bottom0A0.250.00 A0left0"/>
    </vehicle>
    <vehicle id="438" type="passenger" depart="198.35">
        <route edges="right0A0.250.00 A0bottom0"/>
    </vehicle>
    <vehicle id="439" type="passenger" depart="198.80">
        <route edges="top0A0.250.00 A0bottom0"/>
    </vehicle>
    <vehicle id="440" type="passenger" depart="198.85">
        <route edges="left0A0.250.00"/>
    </vehicle>
    <vehicle id="441" type="passenger" depart="201.15">
        <route edges="bottom0A0.250.00 A0left0"/>
    </vehicle>
    <vehicle id="442" type="passenger" depart="201.30">
        <route edges="left0A0 left0A0.250.00"/>
    </vehicle>
    <vehicle id="443" type="passenger" depart="201.65">
        <route edges="right0A0.250.00 A0bottom0"/>
    </vehicle>
    <vehicle id="444" type="passenger" depart="201.70">
        <route edges="bottom0A0 bottom0A0.250.00 A0left0"/>
    </vehicle>
    <vehicle id="445" type="passenger" depart="202.25">
        <route edges="top0A0 top0A0.250.00"/>
    </vehicle>
    <vehicle id="447" type="passenger" depart="205.50">
        <route edges="top0A0 top0A0.250.00 A0bottom0"/>
    </vehicle>
    <vehicle id="451" type="passenger" depart="207.20">
        <route edges="top0A0 top0A0.250.00 A0right0"/>
    </vehicle>
    <vehicle id="453" type="passenger" depart="207.50">
        <route edges="right0A0 right0A0.250.00 A0bottom0"/>
    </vehicle>
    <vehicle id="455" type="passenger" depart="209.30">
        <route edges="bottom0A0.250.00 A0right0"/>
    </vehicle>
    <vehicle id="456" type="passenger" depart="210.20">
        <route edges="right0A0 right0A0.250.00 A0left0"/>
    </vehicle>
    <vehicle id="459" type="passenger" depart="213.00">
        <route edges="right0A0 right0A0.250.00 A0left0"/>
    </vehicle>
    <vehicle id="460" type="passenger" depart="213.05">
        <route edges="top0A0.250.00 A0left0"/>
    </vehicle>
    <vehicle id="461" type="passenger" depart="213.45">
        <route edges="top0A0 top0A0.250.00 A0right0"/>
    </vehicle>
    <vehicle id="464" type="passenger" depart="214.05">
        <route edges="bottom0A0 bottom0A0.250.00"/>
    </vehicle>
    <vehicle id="465" type="passenger" depart="214.15">
        <route edges="bottom0A0.250.00"/>
    </vehicle>
    <vehicle id="466" type="passenger" depart="215.80">