<?xml version="1.0" encoding="UTF-8"?>

<!-- generated on 2023-02-12 18:46:56.778950 by randomTrips.py UNKNOWN
<configuration>
    <begin value="0"/>
    <end value="900"/>
    <insertion-rate value="12500.0"/>
    <net-file value="/home/franky3er/Documents/code/HieraGLight/scenarios/grid/5x5-150m/train/62-scenario/network.net.xml"/>
    <random value="True"/>
    <random-depart value="True"/>
    <route-file value="/home/franky3er/Documents/code/HieraGLight/scenarios/grid/5x5-150m/train/62-scenario/routes.rou.xml"/>
    <seed value="62"/>
    <output-trip-file value="/home/franky3er/Documents/code/HieraGLight/scenarios/grid/5x5-150m/train/62-scenario/trips.trips.xml"/>
    <vehicle-class value="passenger"/>
</configuration>
-->

<routes xmlns:xsi="http://www.w3.org/2001/XMLSchema-instance" xsi:noNamespaceSchemaLocation="http://sumo.dlr.de/xsd/routes_file.xsd">
    <vType id="passenger" vClass="passenger"/>
    <trip id="0" depart="0.23" from="bottom3D0.80.00" to="E2D2.80.00" type="passenger"/>
    <trip id="1" depart="1.29" from="C0B0" to="B4top1" type="passenger"/>
    <trip id="2" depart="1.38" from="B3A3.80.00" to="E4right4" type="passenger"/>
    <trip id="3" depart="1.65" from="bottom3D0" to="C4C3" type="passenger"/>
    <trip id="4" depart="2.37" from="A0A1" to="B1B0.80.00" type="passenger"/>
    <trip id="5" depart="2.66" from="C0D0.80.00" to="top0A4.80.00" type="passenger"/>
    <trip id="6" depart="2.69" from="right0E0.80.00" to="B1B2" type="passenger"/>
    <trip id="7" depart="2.75" from="B3C3.80.00" to="B3A3.80.00" type="passenger"/>
    <trip id="8" depart="2.76" from="A1A2" to="left2A2.80.00" type="passenger"/>
    <trip id="9" depart="2.90" from="B2C2" to="D4C4" type="passenger"/>
    <trip id="10" depart="3.17" from="C4C3.80.00" to="C4D4.80.00" type="passenger"/>
    <trip id="11" depart="3.24" from="D0D1.80.00" to="C0C1" type="passenger"/>
    <trip id="12" depart="3.79" from="D2E2" to="B2C2" type="passenger"/>
    <trip id="13" depart="4.17" from="D0E0.80.00" to="B1A1" type="passenger"/>
    <trip id="14" depart="4.20" from="A3B3.80.00" to="A2B2" type="passenger"/>
    <trip id="15" depart="4.22" from="C0D0" to="A3B3.80.00" type="passenger"/>
    <trip id="16" depart="4.83" from="C2B2.80.00" to="D0E0" type="passenger"/>
    <trip id="17" depart="5.14" from="D3C3.80.00" to="right3E3.80.00" type="passenger"/>
    <trip id="18" depart="5.54" from="right3E3.80.00" to="B0B1.80.00" type="passenger"/>
    <trip id="19" depart="6.67" from="D0E0" to="D2D3.80.00" type="passenger"/>
    <trip id="20" depart="6.69" from="B4C4" to="A2A1.80.00" type="passenger"/>
    <trip id="21" depart="7.05" from="bottom3D0.80.00" to="B0B1" type="passenger"/>
    <trip id="22" depart="7.31" from="right4E4" to="B2C2.80.00" type="passenger"/>
    <trip id="23" depart="8.19" from="B1B0" to="B0A0" type="passenger"/>
    <trip id="24" depart="8.61" from="B0B1.80.00" to="E1E2.80.00" type="passenger"/>
    <trip id="25" depart="9.13" from="B1C1.80.00" to="B1B2.80.00" type="passenger"/>
    <trip id="26" depart="9.28" from="bottom4E0.80.00" to="C3C4" type="passenger"/>
    <trip id="27" depart="9.62" from="A0B0.80.00" to="E2E1" type="passenger"/>
    <trip id="28" depart="9.86" from="A2B2.80.00" to="D4C4.80.00" type="passenger"/>
    <trip id="29" depart="10.06" from="D4E4.80.00" to="top1B4.80.00" type="passenger"/>
    <trip id="30" depart="10.30" from="A1A0" to="B3A3" type="passenger"/>
    <trip id="31" depart="10.72" from="E1D1.80.00" to="E3E2.80.00" type="passenger"/>
    <trip id="32" depart="11.01" from="A2A1.80.00" to="C1D1" type="passenger"/>
    <trip id="33" depart="11.38" from="C1D1.80.00" to="A1B1" type="passenger"/>
    <trip id="34" depart="11.41" from="A0A1.80.00" to="C1D1.80.00" type="passenger"/>
    <trip id="35" depart="12.62" from="left0A0.80.00" to="E1D1" type="passenger"/>
    <trip id="36" depart="13.14" from="E2E3.80.00" to="E0D0" type="passenger"/>
    <trip id="37" depart="13.18" from="E1D1" to="C3B3" type="passenger"/>
    <trip id="38" depart="13.33" from="B3C3.80.00" to="D0E0" type="passenger"/>
    <trip id="39" depart="13.36" from="E4E3.80.00" to="A0B0.80.00" type="passenger"/>
    <trip id="40" depart="13.46" from="E2E3.80.00" to="E3E4.80.00" type="passenger"/>
    <trip id="41" depart="14.34" from="C3B3" to="E3E2" type="passenger"/>
    <trip id="42" depart="15.57" from="left2A2.80.00" to="D1D2.80.00" type="passenger"/>
    <trip id="43" depart="15.74" from="A2A3" to="B1B2" type="passenger"/>
    <trip id="44" depart="15.85" from="E4D4.80.00" to="A3left3" type="passenger"/>
    <trip id="45" depart="16.02" from="C2B2" to="A2A1.80.00" type="passenger"/>
    <trip id="46" depart="16.51" from="C1B1" to="D1D2" type="passenger"/>
    <trip id="47" depart="16.78" from="bottom1B0" to="B3A3" type="passenger"/>
    <trip id="48" depart="17.06" from="C4B4.80.00" to="B3B4" type="passenger"/>
    <trip id="49" depart="17.06" from="E0D0.80.00" to="B4A4.80.00" type="passenger"/>
    <trip id="50" depart="17.09" from="left3A3.80.00" to="C0C1.80.00" type="passenger"/>
    <trip id="51" depart="17.12" from="E2E1" to="D4E4.80.00" type="passenger"/>
    <trip id="52" depart="17.16" from="D4D3" to="B4B3" type="passenger"/>
    <trip id="53" depart="17.26" from="A2B2" to="C1B1" type="passenger"/>
    <trip id="54" depart="17.32" from="left0A0" to="A0B0.80.00" type="passenger"/>
    <trip id="55" depart="18.04" from="B0B1" to="E1E0" type="passenger"/>
    <trip id="56" depart="18.13" from="C1D1.80.00" to="B4A4" type="passenger"/>
    <trip id="57" depart="18.26" from="C1B1.80.00" to="A0B0.80.00" type="passenger"/>
    <trip id="58" depart="18.61" from="C4B4.80.00" to="B1B2.80.00" type="passenger"/>
    <trip id="59" depart="18.64" from="A3A2" to="A3B3.80.00" type="passenger"/>
    <trip id="60" depart="19.08" from="D0C0.80.00" to="C1C2.80.00" type="passenger"/>
    <trip id="61" depart="19.98" from="B4A4.80.00" to="D2D3.80.00" type="passenger"/>
    <trip id="62" depart="20.50" from="top2C4.80.00" to="E3E4" type="passenger"/>
    <trip id="63" depart="20.65" from="C1C2.80.00" to="C1B1" type="passenger"/>
    <trip id="64" depart="21.09" from="bottom3D0" to="B0A0.80.00" type="passenger"/>
    <trip id="65" depart="21.30" from="D2E2" to="B2A2.80.00" type="passenger"/>
    <trip id="66" depart="21.58" from="D4C4" to="E4right4" type="passenger"/>
    <trip id="67" depart="21.70" from="D0D1" to="bottom0A0.80.00" type="passenger"/>
    <trip id="68" depart="21.94" from="D0D1.80.00" to="A1A0" type="passenger"/>
    <trip id="69" depart="22.01" from="D2D1" to="bottom4E0.80.00" type="passenger"/>
    <trip id="70" depart="23.13" from="C2C3" to="B4B3" type="passenger"/>
    <trip id="71" depart="23.24" from="left0A0.80.00" to="D1D2.80.00" type="passenger"/>
    <trip id="72" depart="23.62" from="A2A3.80.00" to="D3D2" type="passenger"/>
    <trip id="73" depart="23.62" from="D4C4.80.00" to="E4D4.80.00" type="passenger"/>
    <trip id="74" depart="24.08" from="left4A4.80.00" to="D4D3" type="passenger"/>
    <trip id="75" depart="24.34" from="C0D0.80.00" to="C0B0.80.00" type="passenger"/>
    <trip id="76" depart="24.78" from="B4A4" to="B1C1.80.00" type="passenger"/>
    <trip id="77" depart="24.96" from="D3D4" to="E2right2" type="passenger"/>
    <trip id="78" depart="25.12" from="E1E2.80.00" to="D4D3.80.00" type="passenger"/>
    <trip id="79" depart="25.27" from="C2D2" to="D1D2.80.00" type="passenger"/>
    <trip id="80" depart="25.39" from="left0A0.80.00" to="B2B3" type="passenger"/>
    <trip id="81" depart="25.44" from="D0E0" to="E0bottom4" type="passenger"/>
    <trip id="82" depart="25.50" from="E3E2" to="E3E4" type="passenger"/>
    <trip id="83" depart="25.85" from="A4A3" to="A2B2" type="passenger"/>
    <trip id="84" depart="25.91" from="B3B4" to="C1D1" type="passenger"/>
    <trip id="85" depart="26.10" from="E3D3.80.00" to="B4B3" type="passenger"/>
    <trip id="86" depart="26.41" from="D0C0" to="B2C2" type="passenger"/>
    <trip id="87" depart="26.66" from="A1A0.80.00" to="B2C2" type="passenger"/>
    <trip id="88" depart="26.81" from="D2D3.80.00" to="D4E4.80.00" type="passenger"/>
    <trip id="89" depart="26.82" from="B2B3.80.00" to="A0left0" type="passenger"/>
    <trip id="90" depart="26.89" from="A2A3.80.00" to="E4E3.80.00" type="passenger"/>
    <trip id="91" depart="27.34" from="D2D3" to="B2A2.80.00" type="passenger"/>
    <trip id="92" depart="28.18" from="B2C2" to="D2E2" type="passenger"/>
    <trip id="93" depart="28.30" from="B4B3.80.00" to="E0D0.80.00" type="passenger"/>
    <trip id="94" depart="28.47" from="E2D2.80.00" to="A3B3" type="passenger"/>
    <trip id="95" depart="28.70" from="E1E0.80.00" to="C3C2.80.00" type="passenger"/>
    <trip id="96" depart="29.08" from="right3E3.80.00" to="A4B4" type="passenger"/>
    <trip id="97" depart="29.39" from="D1D2" to="D4D3.80.00" type="passenger"/>
    <trip id="98" depart="30.11" from="E3E4" to="A3A4" type="passenger"/>
    <trip id="99" depart="30.59" from="bottom2C0.80.00" to="B3A3.80.00" type="passenger"/>
    <trip id="100" depart="30.79" from="B3B2" to="A3left3" type="passenger"/>
    <trip id="101" depart="30.79" from="B3A3" to="E0right0" type="passenger"/>
    <trip id="102" depart="30.94" from="right0E0.80.00" to="A1A2.80.00" type="passenger"/>
    <trip id="103" depart="31.29" from="B3B4" to="right3E3.80.00" type="passenger"/>
    <trip id="104" depart="31.62" from="C4C3" to="A1left1" type="passenger"/>
    <trip id="105" depart="31.74" from="right0E0.80.00" to="C3B3" type="passenger"/>
    <trip id="106" depart="31.86" from="E3D3" to="C1C2.80.00" type="passenger"/>
    <trip id="107" depart="31.98" from="top3D4.80.00" to="C2C1" type="passenger"/>
    <trip id="108" depart="32.28" from="A4B4.80.00" to="B1B0.80.00" type="passenger"/>
    <trip id="109" depart="32.30" from="D3D2.80.00" to="A3A2" type="passenger"/>
    <trip id="110" depart="32.59" from="B0C0" to="E1right1" type="passenger"/>
    <trip id="111" depart="32.62" from="D1D2.80.00" to="bottom3D0.80.00" type="passenger"/>
    <trip id="112" depart="32.64" from="E2D2.80.00" to="E1E2.80.00" type="passenger"/>
    <trip id="113" depart="32.76" from="B4C4.80.00" to="right0E0.80.00" type="passenger"/>
    <trip id="114" depart="32.78" from="A1A2" to="top2C4.80.00" type="passenger"/>
    <trip id="115" depart="33.46" from="A1B1.80.00" to="C3C2.80.00" type="passenger"/>
    <trip id="116" depart="33.62" from="top4E4" to="E2D2" type="passenger"/>
    <trip id="117" depart="34.05" from="top2C4.80.00" to="E4E3" type="passenger"/>
    <trip id="118" depart="34.37" from="E3D3.80.00" to="B1B2.80.00" type="passenger"/>
    <trip id="119" depart="34.85" from="C3C4.80.00" to="B0B1.80.00" type="passenger"/>
    <trip id="120" depart="34.91" from="right4E4.80.00" to="B2A2" type="passenger"/>
    <trip id="121" depart="35.16" from="C3B3.80.00" to="C0D0.80.00" type="passenger"/>
    <trip id="122" depart="35.80" from="C0B0" to="bottom2C0.80.00" type="passenger"/>
    <trip id="123" depart="35.86" from="C4D4" to="B2B3.80.00" type="passenger"/>
    <trip id="124" depart="35.98" from="D4E4.80.00" to="C3C2" type="passenger"/>
    <trip id="125" depart="36.01" from="D2E2" to="D0D1.80.00" type="passenger"/>
    <trip id="126" depart="36.67" from="A4B4.80.00" to="C0D0.80.00" type="passenger"/>
    <trip id="127" depart="36.78" from="C2C3.80.00" to="B0bottom1" type="passenger"/>
    <trip id="128" depart="37.22" from="left0A0" to="C3C2" type="passenger"/>
    <trip id="129" depart="37.38" from="B4B3" to="E3E4.80.00" type="passenger"/>
    <trip id="130" depart="38.02" from="B1B2.80.00" to="B1C1" type="passenger"/>
    <trip id="131" depart="38.11" from="A4A3.80.00" to="E4D4" type="passenger"/>
    <trip id="132" depart="38.14" from="B0A0" to="B1B2" type="passenger"/>
    <trip id="133" depart="38.82" from="D2D1.80.00" to="C1D1.80.00" type="passenger"/>
    <trip id="134" depart="39.26" from="B3B2" to="E4E3.80.00" type="passenger"/>
    <trip id="135" depart="39.40" from="B3A3.80.00" to="E2E1" type="passenger"/>
    <trip id="136" depart="39.41" from="E1D1" to="E3E4" type="passenger"/>
    <trip id="137" depart="39.59" from="C0C1" to="D3D2" type="passenger"/>
    <trip id="138" depart="39.60" from="C3C2.80.00" to="A0A1.80.00" type="passenger"/>
    <trip id="139" depart="39.82" from="bottom4E0" to="B0A0.80.00" type="passenger"/>
    <trip id="140" depart="39.98" from="C2B2" to="B3B4.80.00" type="passenger"/>
    <trip id="141" depart="40.80" from="D0C0" to="D0D1.80.00" type="passenger"/>
    <trip id="142" depart="41.06" from="D2E2" to="C3D3" type="passenger"/>
    <trip id="143" depart="41.26" from="A4A3" to="C1C2" type="passenger"/>
    <trip id="144" depart="41.32" from="C4C3" to="B3B4" type="passenger"/>
    <trip id="145" depart="42.42" from="left1A1" to="B3B2.80.00" type="passenger"/>
    <trip id="146" depart="43.19" from="top1B4" to="right4E4.80.00" type="passenger"/>
    <trip id="147" depart="43.31" from="B3A3" to="E1E0.80.00" type="passenger"/>
    <trip id="148" depart="43.94" from="top1B4" to="C0D0" type="passenger"/>
    <trip id="149" depart="44.14" from="B2C2.80.00" to="E1E2" type="passenger"/>
    <trip id="150" depart="44.33" from="A4B4.80.00" to="A4B4.80.00" type="passenger"/>
    <trip id="151" depart="44.38" from="B3B4" to="bottom3D0.80.00" type="passenger"/>
    <trip id="152" depart="44.66" from="top1B4.80.00" to="A1B1" type="passenger"/>
    <trip id="153" depart="45.78" from="C3B3" to="C0B0.80.00" type="passenger"/>
    <trip id="154" depart="45.85" from="D1C1.80.00" to="B2C2.80.00" type="passenger"/>
    <trip id="155" depart="46.02" from="A4B4" to="E4D4" type="passenger"/>
    <trip id="156" depart="46.45" from="top2C4" to="A3B3.80.00" type="passenger"/>
    <trip id="157" depart="46.94" from="D2E2" to="D1E1" type="passenger"/>
    <trip id="158" depart="47.15" from="top1B4.80.00" to="C2C1" type="passenger"/>
    <trip id="159" depart="47.78" from="left2A2" to="D0E0.80.00" type="passenger"/>
    <trip id="160" depart="47.80" from="D0D1" to="D0D1.80.00" type="passenger"/>
    <trip id="161" depart="48.62" from="right3E3" to="C2C1" type="passenger"/>
    <trip id="162" depart="49.14" from="B3B2" to="right3E3.80.00" type="passenger"/>
    <trip id="163" depart="49.26" from="B3A3" to="C2D2.80.00" type="passenger"/>
    <trip id="164" depart="49.84" from="D4E4" to="D2D1.80.00" type="passenger"/>
    <trip id="165" depart="50.44" from="E4D4.80.00" to="A2A1" type="passenger"/>
    <trip id="166" depart="50.45" from="E0E1" to="B1B2.80.00" type="passenger"/>
    <trip id="167" depart="50.46" from="B0A0.80.00" to="E4E3" type="passenger"/>
    <trip id="168" depart="51.59" from="bottom2C0.80.00" to="A4B4.80.00" type="passenger"/>
    <trip id="169" depart="51.68" from="A1A2.80.00" to="E0bottom4" type="passenger"/>
    <trip id="170" depart="52.06" from="D4D3" to="A3B3.80.00" type="passenger"/>
    <trip id="171" depart="52.21" from="right3E3.80.00" to="C2D2.80.00" type="passenger"/>
    <trip id="172" depart="52.29" from="C2C1" to="C3D3" type="passenger"/>
    <trip id="173" depart="52.54" from="E1E0" to="left1A1.80.00" type="passenger"/>
    <trip id="174" depart="52.94" from="B0C0.80.00" to="D4D3.80.00" type="passenger"/>
    <trip id="175" depart="53.59" from="E3D3.80.00" to="bottom2C0.80.00" type="passenger"/>
    <trip id="176" depart="54.45" from="left4A4.80.00" to="D2E2.80.00" type="passenger"/>
    <trip id="177" depart="55.37" from="B1C1.80.00" to="C2C3" type="passenger"/>
    <trip id="178" depart="56.36" from="B1C1.80.00" to="C3C4.80.00" type="passenger"/>
    <trip id="179" depart="56.58" from="bottom0A0.80.00" to="B4B3.80.00" type="passenger"/>
    <trip id="180" depart="56.86" from="A2A1.80.00" to="B1C1" type="passenger"/>
    <trip id="181" depart="57.14" from="D1D0" to="B4top1" type="passenger"/>
    <trip id="182" depart="57.22" from="B4C4.80.00" to="D4C4" type="passenger"/>
    <trip id="183" depart="57.34" from="top0A4.80.00" to="E3E2.80.00" type="passenger"/>
    <trip id="184" depart="57.34" from="A3A4" to="D0E0" type="passenger"/>
    <trip id="185" depart="57.51" from="E2D2" to="D4E4.80.00" type="passenger"/>
    <trip id="186" depart="57.70" from="right1E1.80.00" to="top4E4.80.00" type="passenger"/>
    <trip id="187" depart="57.74" from="D2D3.80.00" to="D4D3.80.00" type="passenger"/>
    <trip id="188" depart="57.78" from="E4E3" to="E3E2.80.00" type="passenger"/>
    <trip id="189" depart="57.94" from="D3D4" to="C0bottom2" type="passenger"/>
    <trip id="190" depart="58.00" from="B4A4" to="D1E1.80.00" type="passenger"/>
    <trip id="191" depart="58.06" from="top1B4" to="D4E4" type="passenger"/>
    <trip id="192" depart="58.51" from="D1E1" to="C1C0" type="passenger"/>
    <trip id="193" depart="58.62" from="B2B1" to="D2D1.80.00" type="passenger"/>
    <trip id="194" depart="58.73" from="E3E2.80.00" to="E2E3.80.00" type="passenger"/>
    <trip id="195" depart="59.04" from="C2C3.80.00" to="D3D4.80.00" type="passenger"/>
    <trip id="196" depart="59.24" from="D1C1" to="D4D3" type="passenger"/>
    <trip id="197" depart="59.62" from="C4C3" to="D4D3.80.00" type="passenger"/>
    <trip id="198" depart="59.69" from="B2B3" to="bottom0A0.80.00" type="passenger"/>
    <trip id="199" depart="59.74" from="D4E4" to="E0E1.80.00" type="passenger"/>
    <trip id="200" depart="60.10" from="top4E4" to="C4B4" type="passenger"/>
    <trip id="201" depart="60.34" from="C3C4.80.00" to="A1A0" type="passenger"/>
    <trip id="202" depart="60.74" from="D2E2.80.00" to="A2A1.80.00" type="passenger"/>
    <trip id="203" depart="61.26" from="D2D1.80.00" to="A3A2.80.00" type="passenger"/>
    <trip id="204" depart="61.61" from="D2D3" to="D3E3.80.00" type="passenger"/>
    <trip id="205" depart="62.20" from="top2C4" to="A0bottom0" type="passenger"/>
    <trip id="206" depart="63.12" from="C1C2.80.00" to="A4A3" type="passenger"/>
    <trip id="207" depart="63.41" from="A2A1.80.00" to="left3A3.80.00" type="passenger"/>
    <trip id="208" depart="63.63" from="right1E1.80.00" to="C3D3.80.00" type="passenger"/>
    <trip id="209" depart="63.74" from="E1E0" to="A3A2.80.00" type="passenger"/>
    <trip id="210" depart="63.85" from="D4E4.80.00" to="top2C4.80.00" type="passenger"/>
    <trip id="211" depart="64.34" from="C0D0" to="B4B3.80.00" type="passenger"/>
    <trip id="212" depart="64.75" from="C0C1.80.00" to="E4E3" type="passenger"/>
    <trip id="213" depart="65.32" from="D2D1.80.00" to="C3D3.80.00" type="passenger"/>
    <trip id="214" depart="65.43" from="bottom0A0" to="E1right1" type="passenger"/>
    <trip id="215" depart="65.72" from="D1C1.80.00" to="E2D2" type="passenger"/>
    <trip id="216" depart="65.90" from="A3A2.80.00" to="A2B2" type="passenger"/>
    <trip id="217" depart="66.01" from="B3B2" to="E4D4" type="passenger"/>
    <trip id="218" depart="66.34" from="C1C2.80.00" to="B4C4" type="passenger"/>
    <trip id="219" depart="66.44" from="D3C3.80.00" to="B0C0.80.00" type="passenger"/>
    <trip id="220" depart="66.46" from="C4B4" to="E2right2" type="passenger"/>
    <trip id="221" depart="66.66" from="B1B2.80.00" to="E0D0.80.00" type="passenger"/>
    <trip id="222" depart="66.70" from="C2D2.80.00" to="A0B0" type="passenger"/>
    <trip id="223" depart="66.72" from="D4C4" to="C0D0.80.00" type="passenger"/>
    <trip id="224" depart="66.94" from="A4A3.80.00" to="D0D1.80.00" type="passenger"/>
    <trip id="225" depart="67.31" from="B0A0.80.00" to="left4A4.80.00" type="passenger"/>
    <trip id="226" depart="67.63" from="C3C4" to="C0bottom2" type="passenger"/>
    <trip id="227" depart="67.99" from="bottom4E0" to="B0B1" type="passenger"/>
    <trip id="228" depart="68.24" from="D1D0.80.00" to="C1D1" type="passenger"/>
    <trip id="229" depart="68.27" from="B3C3" to="B2B3.80.00" type="passenger"/>
    <trip id="230" depart="68.41" from="right0E0.80.00" to="E3right3" type="passenger"/>
    <trip id="231" depart="69.04" from="B4C4" to="B2B1.80.00" type="passenger"/>
    <trip id="232" depart="69.22" from="A3A4" to="C2C3" type="passenger"/>
    <trip id="233" depart="69.32" from="E1E2.80.00" to="B3B2.80.00" type="passenger"/>
    <trip id="234" depart="69.94" from="A3B3.80.00" to="right2E2.80.00" type="passenger"/>
    <trip id="235" depart="70.38" from="B3A3" to="A3B3" type="passenger"/>
    <trip id="236" depart="70.60" from="E1D1" to="B1A1.80.00" type="passenger"/>
    <trip id="237" depart="70.95" from="right0E0" to="B3C3" type="passenger"/>
    <trip id="238" depart="71.47" from="top0A4.80.00" to="B3B4" type="passenger"/>
    <trip id="239" depart="71.52" from="right3E3.80.00" to="D2E2.80.00" type="passenger"/>
    <trip id="240" depart="71.53" from="left0A0.80.00" to="E1E0.80.00" type="passenger"/>
    <trip id="241" depart="71.98" from="left2A2.80.00" to="A3A4.80.00" type="passenger"/>
    <trip id="242" depart="72.07" from="left3A3.80.00" to="A0B0.80.00" type="passenger"/>
    <trip id="243" depart="72.43" from="E3E2.80.00" to="B4A4.80.00" type="passenger"/>
    <trip id="244" depart="72.77" from="bottom0A0" to="B0B1" type="passenger"/>
    <trip id="245" depart="72.78" from="C1C0.80.00" to="C4D4.80.00" type="passenger"/>
    <trip id="246" depart="72.96" from="C1C2.80.00" to="C0C1" type="passenger"/>
    <trip id="247" depart="73.65" from="E3D3" to="A3B3" type="passenger"/>
    <trip id="248" depart="73.88" from="top0A4.80.00" to="A1B1.80.00" type="passenger"/>
    <trip id="249" depart="74.20" from="bottom4E0.80.00" to="A1left1" type="passenger"/>
    <trip id="250" depart="74.30" from="D1E1.80.00" to="B0A0" type="passenger"/>
    <trip id="251" depart="74.44" from="B3A3" to="C0B0" type="passenger"/>
    <trip id="252" depart="74.63" from="right0E0" to="C4C3" type="passenger"/>
    <trip id="253" depart="74.68" from="E4D4.80.00" to="B2B1" type="passenger"/>
    <trip id="254" depart="74.70" from="B2A2.80.00" to="D4E4" type="passenger"/>
    <trip id="255" depart="75.47" from="E2E1.80.00" to="B3B2" type="passenger"/>
    <trip id="256" depart="75.71" from="B3B2.80.00" to="D0E0" type="passenger"/>
    <trip id="257" depart="75.71" from="B2B3.80.00" to="C2B2" type="passenger"/>
    <trip id="258" depart="75.81" from="top4E4" to="E4E3" type="passenger"/>
    <trip id="259" depart="75.81" from="bottom1B0" to="B2A2.80.00" type="passenger"/>
    <trip id="260" depart="76.26" from="D3C3.80.00" to="D1D2.80.00" type="passenger"/>
    <trip id="261" depart="76.32" from="right3E3.80.00" to="E0E1" type="passenger"/>
    <trip id="262" depart="76.34" from="C4D4" to="C2D2.80.00" type="passenger"/>
    <trip id="263" depart="76.65" from="bottom2C0.80.00" to="A0A1.80.00" type="passenger"/>
    <trip id="264" depart="76.82" from="C3C4.80.00" to="A3A2" type="passenger"/>
    <trip id="265" depart="77.06" from="bottom4E0.80.00" to="D2C2" type="passenger"/>
    <trip id="266" depart="77.54" from="top2C4" to="D2D1.80.00" type="passenger"/>
    <trip id="267" depart="77.62" from="D0D1" to="B4top1" type="passenger"/>
    <trip id="268" depart="77.73" from="A4B4.80.00" to="D1C1" type="passenger"/>
    <trip id="269" depart="78.10" from="A3A4" to="A2A3" type="passenger"/>
    <trip id="270" depart="79.18" from="D3D4.80.00" to="B4A4" type="passenger"/>
    <trip id="271" depart="79.18" from="B3C3" to="D2D1.80.00" type="passenger"/>
    <trip id="272" depart="79.20" from="B4A4" to="C3B3" type="passenger"/>
    <trip id="273" depart="79.23" from="C0C1" to="D2D3" type="passenger"/>
    <trip id="274" depart="79.55" from="E4E3" to="C2C3.80.00" type="passenger"/>
    <trip id="275" depart="79.66" from="B0C0.80.00" to="B2B1.80.00" type="passenger"/>
    <trip id="276" depart="79.84" from="C1D1" to="E1E2" type="passenger"/>
    <trip id="277" depart="80.00" from="B1A1" to="E2D2" type="passenger"/>
    <trip id="278" depart="80.38" from="right3E3.80.00" to="D4C4" type="passenger"/>
    <trip id="279" depart="80.43" from="D2C2.80.00" to="bottom4E0.80.00" type="passenger"/>
    <trip id="280" depart="80.50" from="E0E1" to="right2E2.80.00" type="passenger"/>
    <trip id="281" depart="80.64" from="C0D0.80.00" to="C2D2.80.00" type="passenger"/>
    <trip id="282" depart="81.15" from="B0B1.80.00" to="A0B0" type="passenger"/>
    <trip id="283" depart="81.54" from="D3D4.80.00" to="B0B1.80.00" type="passenger"/>
    <trip id="284" depart="81.67" from="B2C2" to="E0E1.80.00" type="passenger"/>
    <trip id="285" depart="81.81" from="A3B3.80.00" to="left3A3.80.00" type="passenger"/>
    <trip id="286" depart="82.33" from="B4B3" to="E3D3" type="passenger"/>
    <trip id="287" depart="82.65" from="B2C2.80.00" to="D1C1" type="passenger"/>
    <trip id="288" depart="82.92" from="D1E1.80.00" to="C2C1.80.00" type="passenger"/>
    <trip id="289" depart="83.07" from="B3B4.80.00" to="C1B1.80.00" type="passenger"/>
    <trip id="290" depart="83.45" from="A1B1.80.00" to="A3A2.80.00" type="passenger"/>
    <trip id="291" depart="83.85" from="top1B4.80.00" to="E3E4.80.00" type="passenger"/>
    <trip id="292" depart="83.94" from="right2E2.80.00" to="D1C1.80.00" type="passenger"/>
    <trip id="293" depart="84.15" from="A3A2" to="E1D1.80.00" type="passenger"/>
    <trip id="294" depart="84.31" from="C1C0" to="right3E3.80.00" type="passenger"/>
    <trip id="295" depart="84.63" from="C4C3.80.00" to="E3D3" type="passenger"/>
    <trip id="296" depart="84.70" from="D3C3.80.00" to="B0B1.80.00" type="passenger"/>
    <trip id="297" depart="84.97" from="D2D1.80.00" to="C2C3.80.00" type="passenger"/>
    <trip id="298" depart="85.02" from="C1C0" to="C2B2.80.00" type="passenger"/>
    <trip id="299" depart="85.34" from="E1D1" to="D1C1" type="passenger"/>
    <trip id="300" depart="85.68" from="A4A3" to="E4E3.80.00" type="passenger"/>
    <trip id="301" depart="86.01" from="right4E4" to="B2A2.80.00" type="passenger"/>
    <trip id="302" depart="86.74" from="right4E4.80.00" to="E2D2.80.00" type="passenger"/>
    <trip id="303" depart="86.79" from="A3B3" to="left2A2.80.00" type="passenger"/>
    <trip id="304" depart="86.93" from="bottom1B0.80.00" to="A4A3" type="passenger"/>
    <trip id="305" depart="87.03" from="bottom0A0" to="D1D2" type="passenger"/>
    <trip id="306" depart="87.07" from="D0E0.80.00" to="C3D3" type="passenger"/>
    <trip id="307" depart="87.28" from="A3A4.80.00" to="B0C0" type="passenger"/>
    <trip id="308" depart="87.30" from="A4B4" to="B2A2" type="passenger"/>
    <trip id="309" depart="87.35" from="D4C4.80.00" to="B3C3" type="passenger"/>
    <trip id="310" depart="87.62" from="E4E3.80.00" to="D0C0" type="passenger"/>
    <trip id="311" depart="87.78" from="C2C1" to="right4E4.80.00" type="passenger"/>
    <trip id="312" depart="88.06" from="D4E4.80.00" to="E4top4" type="passenger"/>
    <trip id="313" depart="88.06" from="B1C1" to="E4D4.80.00" type="passenger"/>
    <trip id="314" depart="88.46" from="E2D2.80.00" to="C0D0.80.00" type="passenger"/>
    <trip id="315" depart="88.98" from="E2D2" to="E3E2" type="passenger"/>
    <trip id="316" depart="89.18" from="left2A2" to="C0C1.80.00" type="passenger"/>
    <trip id="317" depart="89.46" from="C4D4" to="C0D0.80.00" type="passenger"/>
    <trip id="318" depart="89.53" from="C3B3.80.00" to="D3E3" type="passenger"/>
    <trip id="319" depart="89.74" from="E3D3.80.00" to="D2C2" type="passenger"/>
    <trip id="320" depart="90.58" from="bottom0A0.80.00" to="B1B0.80.00" type="passenger"/>
    <trip id="321" depart="90.76" from="top4E4.80.00" to="E4D4" type="passenger"/>
    <trip id="322" depart="90.99" from="D0D1" to="B0A0" type="passenger"/>
    <trip id="323" depart="91.32" from="D4D3.80.00" to="E0D0.80.00" type="passenger"/>
    <trip id="324" depart="91.51" from="B0B1" to="D4E4.80.00" type="passenger"/>
    <trip id="325" depart="91.69" from="top4E4.80.00" to="E3E4.80.00" type="passenger"/>
    <trip id="326" depart="91.95" from="A4B4.80.00" to="right2E2.80.00" type="passenger"/>
    <trip id="327" depart="92.33" from="top0A4.80.00" to="right3E3.80.00" type="passenger"/>
    <trip id="328" depart="92.37" from="B4A4.80.00" to="A0B0.80.00" type="passenger"/>
    <trip id="329" depart="92.86" from="A1A2.80.00" to="C3D3" type="passenger"/>
    <trip id="330" depart="93.54" from="C2B2.80.00" to="A1B1.80.00" type="passenger"/>
    <trip id="331" depart="94.41" from="C3D3.80.00" to="B4top1" type="passenger"/>
    <trip id="332" depart="94.78" from="D3D4.80.00" to="E2D2" type="passenger"/>
    <trip id="333" depart="94.95" from="C1D1" to="E4D4.80.00" type="passenger"/>
    <trip id="334" depart="95.07" from="D3D4" to="B2A2.80.00" type="passenger"/>
    <trip id="335" depart="95.30" from="top2C4.80.00" to="C1C2.80.00" type="passenger"/>
    <trip id="336" depart="95.32" from="right4E4.80.00" to="E3E2.80.00" type="passenger"/>
    <trip id="337" depart="95.32" from="E3E4.80.00" to="A2B2.80.00" type="passenger"/>
    <trip id="338" depart="95.37" from="right0E0.80.00" to="C0bottom2" type="passenger"/>
    <trip id="339" depart="95.78" from="left4A4.80.00" to="right0E0.80.00" type="passenger"/>
    <trip id="340" depart="96.32" from="C0B0.80.00" to="B2B3" type="passenger"/>
    <trip id="341" depart="96.94" from="B3A3" to="C1D1.80.00" type="passenger"/>
    <trip id="342" depart="96.96" from="C4D4.80.00" to="D3E3" type="passenger"/>
    <trip id="343" depart="97.19" from="B4A4.80.00" to="B1B2" type="passenger"/>
    <trip id="344" depart="97.34" from="C4D4.80.00" to="D4top3" type="passenger"/>
    <trip id="345" depart="97.48" from="bottom1B0" to="B4A4" type="passenger"/>
    <trip id="346" depart="97.73" from="B3B2" to="E4D4" type="passenger"/>
    <trip id="347" depart="98.05" from="D3E3" to="C3C4" type="passenger"/>
    <trip id="348" depart="98.22" from="top1B4.80.00" to="D2C2.80.00" type="passenger"/>
    <trip id="349" depart="98.54" from="C2C3.80.00" to="D0E0" type="passenger"/>
    <trip id="350" depart="98.54" from="D3D4.80.00" to="E2D2.80.00" type="passenger"/>
    <trip id="351" depart="98.54" from="top4E4" to="A4A3" type="passenger"/>