<?xml version="1.0" encoding="UTF-8"?>

<!-- generated on 2023-02-12 18:46:23.773611 by randomTrips.py UNKNOWN
<configuration>
    <begin value="0"/>
    <end value="900"/>
    <insertion-rate value="12500.0"/>
    <net-file value="/home/franky3er/Documents/code/HieraGLight/scenarios/grid/5x5-150m/train/7-scenario/network.net.xml"/>
    <random value="True"/>
    <random-depart value="True"/>
    <route-file value="/home/franky3er/Documents/code/HieraGLight/scenarios/grid/5x5-150m/train/7-scenario/routes.rou.xml"/>
    <seed value="7"/>
    <output-trip-file value="/home/franky3er/Documents/code/HieraGLight/scenarios/grid/5x5-150m/train/7-scenario/trips.trips.xml"/>
    <vehicle-class value="passenger"/>
</configuration>
-->

<!-- generated on 2023-02-12 18:46:23 by Eclipse SUMO duarouter Version 1.15.0
<configuration xmlns:xsi="http://www.w3.org/2001/XMLSchema-instance" xsi:noNamespaceSchemaLocation="http://sumo.dlr.de/xsd/duarouterConfiguration.xsd">

    <input>
        <net-file value="/home/franky3er/Documents/code/HieraGLight/scenarios/grid/5x5-150m/train/7-scenario/network.net.xml"/>
        <route-files value="/home/franky3er/Documents/code/HieraGLight/scenarios/grid/5x5-150m/train/7-scenario/trips.trips.xml"/>
    </input>

    <output>
        <output-file value="/home/franky3er/Documents/code/HieraGLight/scenarios/grid/5x5-150m/train/7-scenario/routes.rou.xml"/>
        <alternatives-output value="NUL"/>
    </output>

    <time>
        <begin value="0"/>
        <end value="900"/>
    </time>

    <report>
        <no-warnings value="true"/>
        <ignore-errors value="true"/>
        <no-step-log value="true"/>
    </report>

</configuration>
-->

<routes xmlns:xsi="http://www.w3.org/2001/XMLSchema-instance" xsi:noNamespaceSchemaLocation="http://sumo.dlr.de/xsd/routes_file.xsd">
    <vType id="passenger" vClass="passenger"/>
    <vehicle id="0" type="passenger" depart="0.18">
        <route edges="B4C4.80.00 C4D4 C4D4.80.00 D4D3 D4D3.80.00 D3D2 D3D2.80.00 D2D1 D2D1.80.00 D1D0 D1D0.80.00 D0C0 D0C0.80.00"/>
    </vehicle>
    <vehicle id="2" type="passenger" depart="0.89">
        <route edges="B3A3.80.00 A3A4 A3A4.80.00 A4B4 A4B4.80.00 B4C4 B4C4.80.00 C4D4 C4D4.80.00"/>
    </vehicle>
    <vehicle id="3" type="passenger" depart="0.93">
        <route edges="B1A1 B1A1.80.00 A1A2 A1A2.80.00 A2A3 A2A3.80.00 A3B3 A3B3.80.00 B3C3 B3C3.80.00 C3D3 C3D3.80.00 D3D2 D3D2.80.00"/>
    </vehicle>
    <vehicle id="4" type="passenger" depart="1.18">
        <route edges="B2B1.80.00 B1B0 B1B0.80.00 B0bottom1"/>
    </vehicle>
    <vehicle id="5" type="passenger" depart="1.30">
        <route edges="E2D2 E2D2.80.00 D2D3 D2D3.80.00 D3D4 D3D4.80.00 D4E4 D4E4.80.00 E4E3 E4E3.80.00 E3D3 E3D3.80.00"/>
    </vehicle>
    <vehicle id="6" type="passenger" depart="1.50">
        <route edges="right3E3.80.00 E3D3 E3D3.80.00 D3C3 D3C3.80.00 C3C4 C3C4.80.00 C4B4 C4B4.80.00 B4A4"/>
    </vehicle>
    <vehicle id="7" type="passenger" depart="1.72">
        <route edges="A0A1 A0A1.80.00 A1B1 A1B1.80.00 B1B0 B1B0.80.00 B0C0"/>
    </vehicle>
    <vehicle id="8" type="passenger" depart="1.80">
        <route edges="bottom3D0.80.00 D0E0 D0E0.80.00 E0E1 E0E1.80.00 E1D1 E1D1.80.00"/>
    </vehicle>
    <vehicle id="9" type="passenger" depart="2.46">
        <route edges="D2D1 D2D1.80.00 D1E1 D1E1.80.00 E1E2 E1E2.80.00 E2E3"/>
    </vehicle>
    <vehicle id="10" type="passenger" depart="2.64">
        <route edges="A4A3.80.00 A3B3 A3B3.80.00 B3C3 B3C3.80.00 C3D3 C3D3.80.00 D3D2 D3D2.80.00 D2C2 D2C2.80.00"/>
    </vehicle>
    <vehicle id="11" type="passenger" depart="2.68">
        <route edges="C0B0.80.00 B0B1 B0B1.80.00 B1C1 B1C1.80.00 C1D1 C1D1.80.00 D1E1 D1E1.80.00 E1E2 E1E2.80.00 E2D2"/>
    </vehicle>
    <vehicle id="12" type="passenger" depart="2.77">
        <route edges="B0B1.80.00 B1A1 B1A1.80.00 A1A2 A1A2.80.00 A2A3"/>
    </vehicle>
    <vehicle id="13" type="passenger" depart="2.99">
        <route edges="D4C4 D4C4.80.00 C4C3 C4C3.80.00 C3B3 C3B3.80.00"/>
    </vehicle>
    <vehicle id="14" type="passenger" depart="3.22">
        <route edges="E2E1.80.00 E1E0 E1E0.80.00 E0D0 E0D0.80.00 D0D1 D0D1.80.00 D1E1"/>
    </vehicle>
    <vehicle id="15" type="passenger" depart="3.52">
        <route edges="top4E4 top4E4.80.00 E4E3"/>
    </vehicle>
    <vehicle id="16" type="passenger" depart="3.96">
        <route edges="A2B2 A2B2.80.00 B2B1 B2B1.80.00 B1B0 B1B0.80.00 B0A0 B0A0.80.00 A0A1 A0A1.80.00"/>
    </vehicle>
    <vehicle id="17" type="passenger" depart="4.27">
        <route edges="A1A0 A1A0.80.00 A0B0 A0B0.80.00 B0B1 B0B1.80.00 B1C1 B1C1.80.00 C1D1 C1D1.80.00 D1D0"/>
    </vehicle>
    <vehicle id="18" type="passenger" depart="4.50">
        <route edges="D2D1.80.00 D1C1 D1C1.80.00 C1B1 C1B1.80.00 B1B2"/>
    </vehicle>
    <vehicle id="19" type="passenger" depart="4.85">
        <route edges="D3E3.80.00 E3E2 E3E2.80.00 E2D2 E2D2.80.00 D2C2 D2C2.80.00 C2B2 C2B2.80.00 B2A2 B2A2.80.00 A2A3 A2A3.80.00 A3A4 A3A4.80.00"/>
    </vehicle>
    <vehicle id="20" type="passenger" depart="5.57">
        <route edges="bottom2C0 bottom2C0.80.00 C0C1 C0C1.80.00 C1D1 C1D1.80.00 D1D0 D1D0.80.00 D0C0 D0C0.80.00 C0bottom2"/>
    </vehicle>
    <vehicle id="21" type="passenger" depart="5.58">
        <route edges="B0B1 B0B1.80.00 B1C1 B1C1.80.00 C1C0 C1C0.80.00 C0B0 C0B0.80.00"/>
    </vehicle>
    <vehicle id="22" type="passenger" depart="5.96">
        <route edges="E0E1.80.00 E1D1 E1D1.80.00 D1D0 D1D0.80.00 D0C0 D0C0.80.00 C0B0 C0B0.80.00 B0A0 B0A0.80.00 A0A1"/>
    </vehicle>
    <vehicle id="23" type="passenger" depart="6.62">
        <route edges="A3A4.80.00 A4B4 A4B4.80.00 B4B3 B4B3.80.00 B3A3 B3A3.80.00 A3A4"/>
    </vehicle>
    <vehicle id="25" type="passenger" depart="6.91">
        <route edges="D4C4 D4C4.80.00 C4C3 C4C3.80.00 C3C2"/>
    </vehicle>
    <vehicle id="26" type="passenger" depart="7.43">
        <route edges="B1B2.80.00 B2C2 B2C2.80.00 C2D2 C2D2.80.00 D2D3"/>
    </vehicle>
    <vehicle id="27" type="passenger" depart="7.99">
        <route edges="B1A1 B1A1.80.00 A1A2 A1A2.80.00 A2B2 A2B2.80.00 B2C2 B2C2.80.00 C2D2 C2D2.80.00 D2E2 D2E2.80.00 E2E1"/>
    </vehicle>
    <vehicle id="29" type="passenger" depart="9.11">
        <route edges="bottom1B0.80.00 B0B1 B0B1.80.00 B1C1 B1C1.80.00 C1D1 C1D1.80.00 D1E1 D1E1.80.00 E1E0 E1E0.80.00"/>
    </vehicle>
    <vehicle id="30" type="passenger" depart="9.30">
        <route edges="B1A1 B1A1.80.00 A1A2 A1A2.80.00 A2B2 A2B2.80.00 B2C2 B2C2.80.00 C2D2 C2D2.80.00 D2D1 D2D1.80.00 D1E1 D1E1.80.00 E1E2"/>
    </vehicle>
    <vehicle id="31" type="passenger" depart="9.46">
        <route edges="D3D4 D3D4.80.00 D4C4 D4C4.80.00 C4B4 C4B4.80.00 B4A4 B4A4.80.00 A4A3 A4A3.80.00 A3B3"/>
    </vehicle>
    <vehicle id="32" type="passenger" depart="9.70">
        <route edges="D2C2.80.00 C2C3 C2C3.80.00 C3C4 C3C4.80.00 C4D4 C4D4.80.00 D4E4 D4E4.80.00 E4E3 E4E3.80.00 E3D3 E3D3.80.00"/>
    </vehicle>
    <vehicle id="33" type="passenger" depart="9.99">
        <route edges="left0A0 left0A0.80.00 A0A1 A0A1.80.00 A1B1 A1B1.80.00 B1B0"/>
    </vehicle>
    <vehicle id="34" type="passenger" depart="10.67">
        <route edges="A0A1.80.00 A1B1 A1B1.80.00 B1B2 B1B2.80.00 B2B3 B2B3.80.00 B3A3"/>
    </vehicle>
    <vehicle id="35" type="passenger" depart="10.70">
        <route edges="C1D1.80.00 D1D2 D1D2.80.00 D2C2 D2C2.80.00 C2B2 C2B2.80.00 B2A2 B2A2.80.00 A2A3 A2A3.80.00 A3A4 A3A4.80.00 A4B4"/>
    </vehicle>
    <vehicle id="36" type="passenger" depart="11.54">
        <route edges="B3A3 B3A3.80.00 A3A2 A3A2.80.00 A2B2 A2B2.80.00 B2B1 B2B1.80.00 B1B0"/>
    </vehicle>
    <vehicle id="37" type="passenger" depart="11.58">
        <route edges="E0D0.80.00"/>
    </vehicle>
    <vehicle id="39" type="passenger" depart="12.51">
        <route edges="A4A3 A4A3.80.00 A3A2 A3A2.80.00 A2A1 A2A1.80.00 A1B1 A1B1.80.00 B1C1 B1C1.80.00 C1D1"/>
    </vehicle>
    <vehicle id="40" type="passenger" depart="13.18">
        <route edges="B2C2.80.00 C2D2 C2D2.80.00 D2E2 D2E2.80.00 E2E1"/>
    </vehicle>
    <vehicle id="41" type="passenger" depart="13.56">
        <route edges="E0E1.80.00 E1D1 E1D1.80.00 D1D0 D1D0.80.00 D0C0 D0C0.80.00 C0C1 C0C1.80.00"/>
    </vehicle>
    <vehicle id="42" type="passenger" depart="13.98">
        <route edges="B3B2 B3B2.80.00 B2C2 B2C2.80.00 C2C1 C2C1.80.00 C1C0 C1C0.80.00 C0bottom2"/>
    </vehicle>
    <vehicle id="44" type="passenger" depart="14.20">
        <route edges="left2A2 left2A2.80.00 A2B2 A2B2.80.00 B2C2 B2C2.80.00 C2C3 C2C3.80.00 C3C4"/>
    </vehicle>
    <vehicle id="45" type="passenger" depart="15.14">
        <route edges="B0B1 B0B1.80.00 B1C1 B1C1.80.00 C1C2 C1C2.80.00 C2B2 C2B2.80.00"/>
    </vehicle>
    <vehicle id="46" type="passenger" depart="15.18">
        <route edges="B3A3 B3A3.80.00 A3A2 A3A2.80.00 A2B2 A2B2.80.00 B2C2 B2C2.80.00 C2D2 C2D2.80.00 D2E2 D2E2.80.00"/>
    </vehicle>
    <vehicle id="49" type="passenger" depart="15.83">
        <route edges="right1E1.80.00 E1D1 E1D1.80.00 D1C1 D1C1.80.00 C1B1 C1B1.80.00 B1A1 B1A1.80.00 A1A2 A1A2.80.00 A2A3 A2A3.80.00 A3B3 A3B3.80.00"/>
    </vehicle>
    <vehicle id="50" type="passenger" depart="16.22">
        <route edges="D3D2.80.00 D2D1 D2D1.80.00 D1C1 D1C1.80.00 C1B1 C1B1.80.00 B1A1 B1A1.80.00 A1A2 A1A2.80.00"/>
    </vehicle>
    <vehicle id="51" type="passenger" depart="16.42">
        <route edges="D1D0 D1D0.80.00 D0C0 D0C0.80.00 C0C1"/>
    </vehicle>
    <vehicle id="52" type="passenger" depart="17.02">
        <route edges="right3E3 right3E3.80.00 E3D3 E3D3.80.00 D3D2 D3D2.80.00 D2D1 D2D1.80.00 D1D0 D1D0.80.00 D0E0 D0E0.80.00 E0E1"/>
    </vehicle>
    <vehicle id="53" type="passenger" depart="17.31">
        <route edges="C1C0.80.00 C0D0 C0D0.80.00 D0E0 D0E0.80.00 E0E1 E0E1.80.00 E1D1"/>
    </vehicle>
    <vehicle id="54" type="passenger" depart="17.38">
        <route edges="C2D2.80.00 D2E2"/>
    </vehicle>
    <vehicle id="55" type="passenger" depart="17.78">
        <route edges="D1C1 D1C1.80.00 C1B1 C1B1.80.00 B1B0 B1B0.80.00 B0bottom1"/>
    </vehicle>
    <vehicle id="56" type="passenger" depart="18.23">
        <route edges="D1D0 D1D0.80.00 D0C0 D0C0.80.00 C0B0 C0B0.80.00 B0A0 B0A0.80.00 A0left0"/>
    </vehicle>
    <vehicle id="57" type="passenger" depart="18.28">
        <route edges="E1D1.80.00 D1D0 D1D0.80.00 D0C0 D0C0.80.00 C0B0 C0B0.80.00 B0B1 B0B1.80.00 B1C1"/>
    </vehicle>
    <vehicle id="59" type="passenger" depart="19.10">
        <route edges="D3E3.80.00 E3E2 E3E2.80.00 E2D2 E2D2.80.00 D2D3 D2D3.80.00 D3D4 D3D4.80.00 D4E4 D4E4.80.00 E4E3 E4E3.80.00 E3D3"/>
    </vehicle>
    <vehicle id="60" type="passenger" depart="20.31">
        <route edges="top1B4 top1B4.80.00 B4B3 B4B3.80.00 B3B2 B3B2.80.00 B2B1 B2B1.80.00 B1A1 B1A1.80.00 A1left1"/>
    </vehicle>
    <vehicle id="61" type="passenger" depart="20.54">
        <route edges="A2A3 A2A3.80.00 A3B3 A3B3.80.00 B3C3 B3C3.80.00 C3D3 C3D3.80.00 D3E3 D3E3.80.00 E3E2 E3E2.80.00 E2E1 E2E1.80.00 E1D1"/>
    </vehicle>
    <vehicle id="62" type="passenger" depart="21.81">
        <route edges="D3D2.80.00 D2D1 D2D1.80.00 D1D0 D1D0.80.00 D0E0 D0E0.80.00 E0E1 E0E1.80.00"/>
    </vehicle>
    <vehicle id="63" type="passenger" depart="22.06">
        <route edges="C2D2.80.00 D2D3 D2D3.80.00 D3C3 D3C3.80.00 C3B3 C3B3.80.00 B3B4 B3B4.80.00 B4C4 B4C4.80.00"/>
    </vehicle>
    <vehicle id="64" type="passenger" depart="22.27">
        <route edges="A4A3 A4A3.80.00 A3A2 A3A2.80.00 A2A1"/>
    </vehicle>
    <vehicle id="65" type="passenger" depart="22.47">
        <route edges="E4E3 E4E3.80.00 E3E2 E3E2.80.00 E2E1 E2E1.80.00 E1D1 E1D1.80.00 D1C1 D1C1.80.00 C1B1 C1B1.80.00 B1B0"/>
    </vehicle>
    <vehicle id="66" type="passenger" depart="22.71">
        <route edges="B0A0 B0A0.80.00 A0A1 A0A1.80.00 A1A2 A1A2.80.00 A2A3 A2A3.80.00 A3B3 A3B3.80.00 B3B4 B3B4.80.00 B4A4"/>
    </vehicle>
    <vehicle id="67" type="passenger" depart="22.78">
        <route edges="bottom0A0.80.00 A0A1 A0A1.80.00 A1A2 A1A2.80.00 A2B2 A2B2.80.00 B2C2 B2C2.80.00"/>
    </vehicle>
    <vehicle id="68" type="passenger" depart="23.00">
        <route edges="bottom4E0.80.00 E0D0 E0D0.80.00 D0C0 D0C0.80.00 C0C1 C0C1.80.00 C1C2 C1C2.80.00 C2C3 C2C3.80.00 C3C4"/>
    </vehicle>
    <vehicle id="70" type="passenger" depart="23.32">
        <route edges="B3B4.80.00 B4C4 B4C4.80.00 C4C3 C4C3.80.00 C3B3 C3B3.80.00 B3B2 B3B2.80.00"/>
    </vehicle>
    <vehicle id="71" type="passenger" depart="23.85">
        <route edges="B2A2 B2A2.80.00 A2A3 A2A3.80.00 A3A4 A3A4.80.00 A4B4 A4B4.80.00 B4C4 B4C4.80.00 C4D4 C4D4.80.00 D4D3 D4D3.80.00"/>
    </vehicle>
    <vehicle id="72" type="passenger" depart="24.40">
        <route edges="left2A2 left2A2.80.00 A2B2 A2B2.80.00 B2C2 B2C2.80.00 C2C3 C2C3.80.00 C3C4 C3C4.80.00 C4D4 C4D4.80.00 D4D3"/>
    </vehicle>
    <vehicle id="73" type="passenger" depart="24.68">
        <route edges="C3C2.80.00 C2D2 C2D2.80.00 D2E2 D2E2.80.00 E2E1 E2E1.80.00 E1E0 E1E0.80.00 E0bottom4"/>
    </vehicle>
    <vehicle id="74" type="passenger" depart="25.07">
        <route edges="C0B0.80.00 B0B1 B0B1.80.00 B1B2 B1B2.80.00 B2B3 B2B3.80.00 B3C3 B3C3.80.00 C3D3 C3D3.80.00 D3D4 D3D4.80.00"/>
    </vehicle>
    <vehicle id="75" type="passenger" depart="25.74">
        <route edges="A3A2 A3A2.80.00 A2B2 A2B2.80.00 B2C2 B2C2.80.00 C2D2 C2D2.80.00 D2D1 D2D1.80.00 D1D0 D1D0.80.00 D0C0"/>
    </vehicle>
    <vehicle id="76" type="passenger" depart="25.84">
        <route edges="D3C3 D3C3.80.00 C3B3 C3B3.80.00 B3B2 B3B2.80.00 B2B1"/>
    </vehicle>
    <vehicle id="77" type="passenger" depart="26.09">
        <route edges="D1C1 D1C1.80.00 C1B1 C1B1.80.00 B1A1 B1A1.80.00 A1A0 A1A0.80.00"/>
    </vehicle>
    <vehicle id="78" type="passenger" depart="26.14">
        <route edges="B1B2.80.00 B2C2 B2C2.80.00 C2C1 C2C1.80.00 C1B1"/>
    </vehicle>
    <vehicle id="79" type="passenger" depart="26.41">
        <route edges="C4C3 C4C3.80.00 C3D3 C3D3.80.00 D3D4 D3D4.80.00 D4C4"/>
    </vehicle>
    <vehicle id="80" type="passenger" depart="26.46">
        <route edges="bottom3D0 bottom3D0.80.00 D0C0 D0C0.80.00"/>
    </vehicle>
    <vehicle id="81" type="passenger" depart="26.65">
        <route edges="C3C4.80.00 C4D4 C4D4.80.00 D4D3 D4D3.80.00 D3D2 D3D2.80.00 D2D1 D2D1.80.00 D1D0 D1D0.80.00 D0C0 D0C0.80.00 C0B0 C0B0.80.00 B0B1"/>
    </vehicle>
    <vehicle id="82" type="passenger" depart="26.70">
        <route edges="E0E1 E0E1.80.00 E1E2 E1E2.80.00 E2D2 E2D2.80.00"/>
    </vehicle>
    <vehicle id="83" type="passenger" depart="26.82">
        <route edges="C1C0 C1C0.80.00 C0D0 C0D0.80.00 D0D1 D0D1.80.00 D1C1 D1C1.80.00 C1B1 C1B1.80.00"/>
    </vehicle>
    <vehicle id="84" type="passenger" depart="26.91">
        <route edges="left3A3.80.00 A3B3 A3B3.80.00 B3B2 B3B2.80.00 B2A2 B2A2.80.00"/>
    </vehicle>
    <vehicle id="85" type="passenger" depart="26.95">
        <route edges="C3C4.80.00"/>
    </vehicle>
    <vehicle id="86" type="passenger" depart="28.47">
        <route edges="A1A0.80.00 A0B0 A0B0.80.00 B0B1 B0B1.80.00 B1B2 B1B2.80.00"/>
    </vehicle>
    <vehicle id="87" type="passenger" depart="28.47">
        <route edges="C4D4 C4D4.80.00 D4D3 D4D3.80.00 D3D2 D3D2.80.00 D2D1 D2D1.80.00 D1C1 D1C1.80.00 C1B1 C1B1.80.00 B1B0 B1B0.80.00 B0C0"/>
    </vehicle>
    <vehicle id="88" type="passenger" depart="28.48">
        <route edges="C0B0.80.00 B0B1 B0B1.80.00 B1C1 B1C1.80.00 C1D1 C1D1.80.00 D1D2 D1D2.80.00 D2C2"/>
    </vehicle>
    <vehicle id="89" type="passenger" depart="28.87">
        <route edges="D3D4.80.00 D4C4 D4C4.80.00 C4C3 C4C3.80.00 C3D3 C3D3.80.00 D3E3 D3E3.80.00 E3E4"/>
    </vehicle>
    <vehicle id="90" type="passenger" depart="28.99">
        <route edges="D1C1.80.00 C1C2 C1C2.80.00 C2C3 C2C3.80.00 C3C4 C3C4.80.00 C4D4 C4D4.80.00"/>
    </vehicle>
    <vehicle id="92" type="passenger" depart="29.40">
        <route edges="E1E0.80.00 E0D0 E0D0.80.00 D0C0 D0C0.80.00 C0B0 C0B0.80.00 B0B1 B0B1.80.00 B1B2 B1B2.80.00 B2A2 B2A2.80.00 A2A1 A2A1.80.00"/>
    </vehicle>
    <vehicle id="94" type="passenger" depart="29.65">
        <route edges="A3A4.80.00 A4B4 A4B4.80.00 B4B3 B4B3.80.00 B3A3 B3A3.80.00 A3left3"/>
    </vehicle>
    <vehicle id="96" type="passenger" depart="30.00">
        <route edges="A3A2 A3A2.80.00 A2A1 A2A1.80.00 A1B1 A1B1.80.00 B1C1 B1C1.80.00 C1D1 C1D1.80.00 D1D2"/>
    </vehicle>
    <vehicle id="97" type="passenger" depart="30.17">
        <route edges="C0C1 C0C1.80.00 C1C2 C1C2.80.00 C2D2 C2D2.80.00 D2E2 D2E2.80.00"/>
    </vehicle>
    <vehicle id="98" type="passenger" depart="30.72">
        <route edges="E4D4.80.00 D4C4 D4C4.80.00 C4B4 C4B4.80.00 B4A4 B4A4.80.00 A4A3 A4A3.80.00 A3B3"/>
    </vehicle>
    <vehicle id="101" type="passenger" depart="32.16">
        <route edges="B0A0.80.00 A0A1 A0A1.80.00 A1B1 A1B1.80.00 B1C1 B1C1.80.00 C1D1 C1D1.80.00 D1E1 D1E1.80.00 E1E2 E1E2.80.00 E2D2 E2D2.80.00"/>
    </vehicle>
    <vehicle id="102" type="passenger" depart="32.35">
        <route edges="C3C2 C3C2.80.00 C2D2 C2D2.80.00 D2D3 D2D3.80.00 D3E3 D3E3.80.00 E3E2 E3E2.80.00 E2D2"/>
    </vehicle>
    <vehicle id="105" type="passenger" depart="32.94">
        <route edges="C0C1.80.00 C1B1 C1B1.80.00 B1B2 B1B2.80.00 B2C2 B2C2.80.00 C2C1"/>
    </vehicle>
    <vehicle id="106" type="passenger" depart="33.08">
        <route edges="C4C3 C4C3.80.00 C3C2 C3C2.80.00 C2C1 C2C1.80.00 C1C0 C1C0.80.00 C0B0 C0B0.80.00 B0B1"/>
    </vehicle>
    <vehicle id="107" type="passenger" depart="33.10">
        <route edges="D0E0 D0E0.80.00 E0E1 E0E1.80.00 E1D1 E1D1.80.00 D1C1 D1C1.80.00 C1B1 C1B1.80.00 B1A1 B1A1.80.00 A1A2 A1A2.80.00 A2A3 A2A3.80.00 A3A4 A3A4.80.00 A4B4"/>
    </vehicle>
    <vehicle id="108" type="passenger" depart="33.84">
        <route edges="D1D2.80.00 D2D3 D2D3.80.00 D3E3 D3E3.80.00 E3E2 E3E2.80.00 E2D2 E2D2.80.00 D2D1"/>
    </vehicle>
    <vehicle id="109" type="passenger" depart="34.23">
        <route edges="left4A4 left4A4.80.00 A4B4 A4B4.80.00 B4C4 B4C4.80.00 C4D4 C4D4.80.00 D4E4 D4E4.80.00 E4top4"/>
    </vehicle>
    <vehicle id="110" type="passenger" depart="34.32">
        <route edges="B0B1 B0B1.80.00 B1B2 B1B2.80.00 B2C2 B2C2.80.00 C2D2 C2D2.80.00"/>
    </vehicle>
    <vehicle id="112" type="passenger" depart="34.69">
        <route edges="B4C4 B4C4.80.00 C4D4 C4D4.80.00 D4D3 D4D3.80.00 D3D2 D3D2.80.00 D2C2 D2C2.80.00 C2C3 C2C3.80.00"/>
    </vehicle>
    <vehicle id="113" type="passenger" depart="35.24">
        <route edges="top4E4 top4E4.80.00 E4D4 E4D4.80.00 D4top3"/>
    </vehicle>
    <vehicle id="114" type="passenger" depart="35.65">
        <route edges="D3C3 D3C3.80.00 C3C4 C3C4.80.00 C4D4 C4D4.80.00 D4D3 D4D3.80.00 D3E3 D3E3.80.00 E3E4"/>
    </vehicle>
    <vehicle id="116" type="passenger" depart="36.61">
        <route edges="B4B3 B4B3.80.00 B3B2 B3B2.80.00 B2A2 B2A2.80.00 A2A3"/>
    </vehicle>
    <vehicle id="117" type="passenger" depart="36.66">
        <route edges="bottom3D0 bottom3D0.80.00 D0D1 D0D1.80.00 D1E1"/>
    </vehicle>
    <vehicle id="119" type="passenger" depart="37.78">
        <route edges="top2C4.80.00 C4C3 C4C3.80.00 C3C2 C3C2.80.00 C2B2 C2B2.80.00 B2A2 B2A2.80.00 A2A3 A2A3.80.00"/>
    </vehicle>
    <vehicle id="120" type="passenger" depart="37.83">
        <route edges="C3C4 C3C4.80.00 C4B4 C4B4.80.00 B4A4 B4A4.80.00"/>
    </vehicle>
    <vehicle id="122" type="passenger" depart="38.46">
        <route edges="B1B2 B1B2.80.00 B2A2 B2A2.80.00 A2A1 A2A1.80.00 A1A0 A1A0.80.00 A0bottom0"/>
    </vehicle>
    <vehicle id="123" type="passenger" depart="38.50">
        <route edges="A3B3 A3B3.80.00 B3B4 B3B4.80.00 B4C4 B4C4.80.00 C4D4 C4D4.80.00 D4E4 D4E4.80.00 E4E3 E4E3.80.00 E3D3 E3D3.80.00"/>
    </vehicle>
    <vehicle id="124" type="passenger" depart="38.60">
        <route edges="top1B4 top1B4.80.00 B4B3 B4B3.80.00 B3C3 B3C3.80.00 C3D3 C3D3.80.00 D3D4 D3D4.80.00 D4C4 D4C4.80.00"/>
    </vehicle>
    <vehicle id="125" type="passenger" depart="38.92">
        <route edges="E1D1.80.00 D1D2 D1D2.80.00 D2E2"/>
    </vehicle>
    <vehicle id="126" type="passenger" depart="39.34">
        <route edges="B2C2 B2C2.80.00 C2C1 C2C1.80.00 C1C0 C1C0.80.00 C0D0 C0D0.80.00 D0D1"/>
    </vehicle>
    <vehicle id="127" type="passenger" depart="39.42">
        <route edges="B4B3.80.00 B3B2 B3B2.80.00 B2B1 B2B1.80.00 B1A1 B1A1.80.00 A1A2"/>
    </vehicle>
    <vehicle id="128" type="passenger" depart="39.52">
        <route edges="E0E1.80.00 E1E2 E1E2.80.00 E2E3 E2E3.80.00 E3E4 E3E4.80.00 E4D4 E4D4.80.00 D4D3 D4D3.80.00"/>
    </vehicle>
    <vehicle id="129" type="passenger" depart="39.63">
        <route edges="B3B4 B3B4.80.00 B4C4 B4C4.80.00 C4D4 C4D4.80.00 D4D3 D4D3.80.00 D3D2 D3D2.80.00 D2D1 D2D1.80.00 D1D0 D1D0.80.00 D0bottom3"/>
    </vehicle>
    <vehicle id="130" type="passenger" depart="39.76">
        <route edges="E1E0 E1E0.80.00 E0D0 E0D0.80.00 D0C0 D0C0.80.00 C0B0 C0B0.80.00 B0A0 B0A0.80.00 A0A1 A0A1.80.00 A1A2 A1A2.80.00 A2A3 A2A3.80.00 A3A4 A3A4.80.00 A4B4"/>
    </vehicle>
    <vehicle id="131" type="passenger" depart="39.86">
        <route edges="E2E3.80.00 E3D3 E3D3.80.00 D3D2 D3D2.80.00 D2D1 D2D1.80.00"/>
    </vehicle>
    <vehicle id="132" type="passenger" depart="40.77">
        <route edges="B3B4 B3B4.80.00 B4C4 B4C4.80.00 C4D4 C4D4.80.00 D4D3 D4D3.80.00 D3D2 D3D2.80.00 D2C2 D2C2.80.00"/>
    </vehicle>
    <vehicle id="133" type="passenger" depart="41.32">
        <route edges="C1B1 C1B1.80.00 B1B0 B1B0.80.00 B0A0 B0A0.80.00 A0left0"/>
    </vehicle>
    <vehicle id="135" type="passenger" depart="42.09">
        <route edges="B4A4.80.00 A4A3 A4A3.80.00 A3B3 A3B3.80.00 B3C3 B3C3.80.00 C3D3 C3D3.80.00 D3E3 D3E3.80.00 E3E4 E3E4.80.00"/>
    </vehicle>
    <vehicle id="136" type="passenger" depart="42.31">
        <route edges="D4E4.80.00 E4E3 E4E3.80.00 E3E2 E3E2.80.00 E2E1 E2E1.80.00 E1E0 E1E0.80.00 E0D0 E0D0.80.00 D0C0 D0C0.80.00 C0bottom2"/>
    </vehicle>
    <vehicle id="137" type="passenger" depart="42.50">
        <route edges="B1A1.80.00 A1A2 A1A2.80.00 A2B2 A2B2.80.00 B2C2 B2C2.80.00 C2D2 C2D2.80.00 D2D1 D2D1.80.00 D1D0 D1D0.80.00 D0C0 D0C0.80.00"/>
    </vehicle>
    <vehicle id="139" type="passenger" depart="42.62">
        <route edges="B3A3 B3A3.80.00 A3A4 A3A4.80.00 A4B4 A4B4.80.00 B4C4 B4C4.80.00"/>
    </vehicle>
    <vehicle id="140" type="passenger" depart="42.80">
        <route edges="C3C4 C3C4.80.00 C4D4 C4D4.80.00 D4E4 D4E4.80.00 E4E3 E4E3.80.00 E3E2 E3E2.80.00 E2E1"/>
    </vehicle>
    <vehicle id="141" type="passenger" depart="42.92">
        <route edges="A3B3.80.00 B3C3 B3C3.80.00 C3C2"/>
    </vehicle>
    <vehicle id="142" type="passenger" depart="42.94">
        <route edges="B0B1.80.00 B1B2 B1B2.80.00 B2B3 B2B3.80.00 B3A3 B3A3.80.00"/>
    </vehicle>
    <vehicle id="143" type="passenger" depart="42.96">
        <route edges="E2E3.80.00 E3D3 E3D3.80.00 D3D4 D3D4.80.00 D4E4 D4E4.80.00 E4E3 E4E3.80.00 E3E2 E3E2.80.00 E2D2"/>
    </vehicle>
    <vehicle id="144" type="passenger" depart="43.00">
        <route edges="B1B0 B1B0.80.00 B0A0 B0A0.80.00 A0A1 A0A1.80.00 A1A2 A1A2.80.00 A2A3 A2A3.80.00 A3A4 A3A4.80.00 A4B4"/>
    </vehicle>
    <vehicle id="145" type="passenger" depart="43.48">
        <route edges="B0A0 B0A0.80.00 A0A1 A0A1.80.00 A1B1 A1B1.80.00 B1C1 B1C1.80.00 C1D1 C1D1.80.00 D1E1 D1E1.80.00 E1right1"/>
    </vehicle>
    <vehicle id="146" type="passenger" depart="44.38">
        <route edges="B2C2.80.00 C2C1 C2C1.80.00 C1C0 C1C0.80.00 C0B0 C0B0.80.00 B0A0 B0A0.80.00 A0A1"/>
    </vehicle>
    <vehicle id="147" type="passenger" depart="44.62">
        <route edges="E3D3 E3D3.80.00 D3D4 D3D4.80.00 D4E4"/>
    </vehicle>
    <vehicle id="149" type="passenger" depart="44.88">
        <route edges="A1A2 A1A2.80.00 A2A3 A2A3.80.00 A3A4 A3A4.80.00 A4B4 A4B4.80.00 B4C4 B4C4.80.00 C4C3 C4C3.80.00"/>
    </vehicle>
    <vehicle id="150" type="passenger" depart="45.07">
        <route edges="C0D0.80.00 D0D1 D0D1.80.00 D1C1 D1C1.80.00 C1B1 C1B1.80.00 B1B0"/>
    </vehicle>
    <vehicle id="151" type="passenger" depart="45.28">
        <route edges="D3D2.80.00 D2D1 D2D1.80.00 D1D0 D1D0.80.00 D0C0 D0C0.80.00 C0B0 C0B0.80.00"/>
    </vehicle>
    <vehicle id="152" type="passenger" depart="45.41">
        <route edges="right2E2 right2E2.80.00 E2D2 E2D2.80.00 D2C2 D2C2.80.00 C2C3 C2C3.80.00 C3C4 C3C4.80.00 C4B4"/>
    </vehicle>
    <vehicle id="153" type="passenger" depart="45.58">
        <route edges="B1C1 B1C1.80.00 C1C2 C1C2.80.00 C2C3 C2C3.80.00 C3D3 C3D3.80.00"/>
    </vehicle>
    <vehicle id="155" type="passenger" depart="46.14">
        <route edges="B3A3.80.00 A3A4 A3A4.80.00 A4B4 A4B4.80.00 B4C4 B4C4.80.00 C4D4 C4D4.80.00 D4E4 D4E4.80.00 E4right4"/>
    </vehicle>
    <vehicle id="156" type="passenger" depart="46.27">
        <route edges="E3E4 E3E4.80.00 E4D4 E4D4.80.00 D4C4 D4C4.80.00 C4C3 C4C3.80.00 C3C2 C3C2.80.00 C2D2"/>
    </vehicle>
    <vehicle id="157" type="passenger" depart="46.47">
        <route edges="C0D0.80.00 D0D1 D0D1.80.00 D1C1 D1C1.80.00 C1B1 C1B1.80.00 B1B2 B1B2.80.00 B2B3 B2B3.80.00 B3B4 B3B4.80.00"/>
    </vehicle>
    <vehicle id="158" type="passenger" depart="46.53">
        <route edges="D1D2.80.00 D2D3 D2D3.80.00 D3D4 D3D4.80.00 D4C4 D4C4.80.00 C4B4 C4B4.80.00 B4A4 B4A4.80.00 A4A3 A4A3.80.00"/>
    </vehicle>
    <vehicle id="159" type="passenger" depart="46.59">
        <route edges="D0E0.80.00 E0E1 E0E1.80.00 E1E2 E1E2.80.00 E2D2 E2D2.80.00 D2D1 D2D1.80.00"/>
    </vehicle>
    <vehicle id="160" type="passenger" depart="46.65">
        <route edges="A3A4.80.00 A4B4 A4B4.80.00 B4B3 B4B3.80.00 B3B2 B3B2.80.00 B2B1 B2B1.80.00 B1B0 B1B0.80.00 B0A0 B0A0.80.00 A0A1 A0A1.80.00"/>
    </vehicle>
    <vehicle id="161" type="passenger" depart="46.96">
        <route edges="B1B0.80.00 B0C0 B0C0.80.00 C0C1 C0C1.80.00 C1D1 C1D1.80.00 D1D0 D1D0.80.00"/>
    </vehicle>
    <vehicle id="162" type="passenger" depart="47.58">
        <route edges="B1B0.80.00 B0C0 B0C0.80.00 C0C1 C0C1.80.00 C1C2 C1C2.80.00 C2C3 C2C3.80.00 C3C4 C3C4.80.00 C4D4 C4D4.80.00 D4D3"/>
    </vehicle>
    <vehicle id="163" type="passenger" depart="47.90">
        <route edges="E2D2 E2D2.80.00 D2C2 D2C2.80.00 C2B2 C2B2.80.00 B2B3 B2B3.80.00 B3B4 B3B4.80.00 B4A4 B4A4.80.00 A4A3 A4A3.80.00"/>
    </vehicle>
    <vehicle id="164" type="passenger" depart="48.60">
        <route edges="left1A1 left1A1.80.00 A1B1 A1B1.80.00 B1C1"/>
    </vehicle>
    <vehicle id="165" type="passenger" depart="48.65">
        <route edges="A3B3.80.00 B3B2 B3B2.80.00 B2B1 B2B1.80.00 B1C1 B1C1.80.00 C1C2"/>
    </vehicle>
    <vehicle id="166" type="passenger" depart="48.93">
        <route edges="C3C2.80.00 C2D2 C2D2.80.00 D2D1 D2D1.80.00 D1C1 D1C1.80.00"/>
    </vehicle>
    <vehicle id="167" type="passenger" depart="49.09">
        <route edges="D3C3.80.00 C3C2 C3C2.80.00 C2D2 C2D2.80.00 D2D3 D2D3.80.00 D3D4"/>
    </vehicle>
    <vehicle id="168" type="passenger" depart="49.55">
        <route edges="C0C1 C0C1.80.00 C1D1 C1D1.80.00 D1D0 D1D0.80.00 D0C0 D0C0.80.00 C0B0"/>
    </vehicle>
    <vehicle id="169" type="passenger" depart="49.60">
        <route edges="B1B0.80.00 B0A0 B0A0.80.00 A0A1 A0A1.80.00 A1B1"/>
    </vehicle>
    <vehicle id="170" type="passenger" depart="50.51">
        <route edges="bottom4E0 bottom4E0.80.00 E0D0 E0D0.80.00 D0D1 D0D1.80.00 D1D2 D1D2.80.00 D2D3 D2D3.80.00 D3D4 D3D4.80.00 D4E4 D4E4.80.00 E4E3 E4E3.80.00"/>
    </vehicle>
    <vehicle id="171" type="passenger" depart="50.53">
        <route edges="A2A3 A2A3.80.00 A3B3 A3B3.80.00 B3C3 B3C3.80.00 C3C2 C3C2.80.00 C2B2"/>
    </vehicle>
    <vehicle id="172" type="passenger" depart="50.81">
        <route edges="C1B1.80.00 B1B0 B1B0.80.00 B0A0"/>
    </vehicle>
    <vehicle id="173" type="passenger" depart="50.90">
        <route edges="B4B3 B4B3.80.00 B3B2 B3B2.80.00 B2C2 B2C2.80.00 C2D2 C2D2.80.00 D2E2 D2E2.80.00"/>
    </vehicle>
    <vehicle id="174" type="passenger" depart="50.99">
        <route edges="A4B4 A4B4.80.00 B4B3 B4B3.80.00 B3A3 B3A3.80.00 A3A4 A3A4.80.00 A4left4"/>
    </vehicle>
    <vehicle id="176" type="passenger" depart="51.86">
        <route edges="C1B1.80.00 B1B2 B1B2.80.00 B2B3 B2B3.80.00 B3C3 B3C3.80.00 C3D3 C3D3.80.00 D3E3 D3E3.80.00 E3E2 E3E2.80.00 E2D2 E2D2.80.00"/>
    </vehicle>
    <vehicle id="178" type="passenger" depart="52.04">
        <route edges="B3C3.80.00 C3D3 C3D3.80.00 D3E3 D3E3.80.00 E3E4 E3E4.80.00 E4D4 E4D4.80.00"/>
    </vehicle>
    <vehicle id="179" type="passenger" depart="52.39">
        <route edges="left0A0 left0A0.80.00 A0A1 A0A1.80.00 A1B1"/>
    </vehicle>
    <vehicle id="180" type="passenger" depart="52.56">
        <route edges="C2B2.80.00 B2B1 B2B1.80.00 B1B0 B1B0.80.00 B0C0 B0C0.80.00 C0C1"/>
    </vehicle>
    <vehicle id="182" type="passenger" depart="53.18">
        <route edges="C3B3.80.00 B3B4 B3B4.80.00 B4C4 B4C4.80.00 C4D4 C4D4.80.00 D4E4 D4E4.80.00 E4right4"/>
    </vehicle>
    <vehicle id="183" type="passenger" depart="53.48">
        <route edges="A1A2 A1A2.80.00 A2B2 A2B2.80.00 B2B1 B2B1.80.00 B1C1 B1C1.80.00"/>
    </vehicle>
    <vehicle id="184" type="passenger" depart="53.79">
        <route edges="B3B2.80.00 B2B1 B2B1.80.00 B1A1 B1A1.80.00 A1A2 A1A2.80.00 A2B2"/>
    </vehicle>
    <vehicle id="185" type="passenger" depart="53.93">
        <route edges="D0E0.80.00 E0E1 E0E1.80.00 E1D1 E1D1.80.00 D1D0"/>
    </vehicle>
    <vehicle id="187" type="passenger" depart="54.56">
        <route edges="C2C1 C2C1.80.00 C1D1 C1D1.80.00 D1D0"/>
    </vehicle>
    <vehicle id="188" type="passenger" depart="54.58">
        <route edges="C2C3.80.00 C3B3 C3B3.80.00 B3A3 B3A3.80.00 A3A2 A3A2.80.00 A2A1 A2A1.80.00 A1A0 A1A0.80.00 A0B0"/>
    </vehicle>
    <vehicle id="189" type="passenger" depart="55.21">
        <route edges="A0A1 A0A1.80.00 A1A2 A1A2.80.00 A2A3 A2A3.80.00 A3B3 A3B3.80.00 B3B4 B3B4.80.00 B4top1"/>
    </vehicle>
    <vehicle id="190" type="passenger" depart="55.29">