<?xml version="1.0" encoding="UTF-8"?>

<!-- generated on 2023-02-12 18:46:23.594555 by randomTrips.py UNKNOWN
<configuration>
    <begin value="0"/>
    <end value="900"/>
    <insertion-rate value="12500.0"/>
    <net-file value="/home/franky3er/Documents/code/HieraGLight/scenarios/grid/5x5-150m/train/7-scenario/network.net.xml"/>
    <random value="True"/>
    <random-depart value="True"/>
    <route-file value="/home/franky3er/Documents/code/HieraGLight/scenarios/grid/5x5-150m/train/7-scenario/routes.rou.xml"/>
    <seed value="7"/>
    <output-trip-file value="/home/franky3er/Documents/code/HieraGLight/scenarios/grid/5x5-150m/train/7-scenario/trips.trips.xml"/>
    <vehicle-class value="passenger"/>
</configuration>
-->

<routes xmlns:xsi="http://www.w3.org/2001/XMLSchema-instance" xsi:noNamespaceSchemaLocation="http://sumo.dlr.de/xsd/routes_file.xsd">
    <vType id="passenger" vClass="passenger"/>
    <trip id="0" depart="0.18" from="B4C4.80.00" to="D0C0.80.00" type="passenger"/>
    <trip id="1" depart="0.65" from="E0E1.80.00" to="bottom4E0.80.00" type="passenger"/>
    <trip id="2" depart="0.89" from="B3A3.80.00" to="C4D4.80.00" type="passenger"/>
    <trip id="3" depart="0.93" from="B1A1" to="D3D2.80.00" type="passenger"/>
    <trip id="4" depart="1.18" from="B2B1.80.00" to="B0bottom1" type="passenger"/>
    <trip id="5" depart="1.30" from="E2D2" to="E3D3.80.00" type="passenger"/>
    <trip id="6" depart="1.50" from="right3E3.80.00" to="B4A4" type="passenger"/>
    <trip id="7" depart="1.72" from="A0A1" to="B0C0" type="passenger"/>
    <trip id="8" depart="1.80" from="bottom3D0.80.00" to="E1D1.80.00" type="passenger"/>
    <trip id="9" depart="2.46" from="D2D1" to="E2E3" type="passenger"/>
    <trip id="10" depart="2.64" from="A4A3.80.00" to="D2C2.80.00" type="passenger"/>
    <trip id="11" depart="2.68" from="C0B0.80.00" to="E2D2" type="passenger"/>
    <trip id="12" depart="2.77" from="B0B1.80.00" to="A2A3" type="passenger"/>
    <trip id="13" depart="2.99" from="D4C4" to="C3B3.80.00" type="passenger"/>
    <trip id="14" depart="3.22" from="E2E1.80.00" to="D1E1" type="passenger"/>
    <trip id="15" depart="3.52" from="top4E4" to="E4E3" type="passenger"/>
    <trip id="16" depart="3.96" from="A2B2" to="A0A1.80.00" type="passenger"/>
    <trip id="17" depart="4.27" from="A1A0" to="D1D0" type="passenger"/>
    <trip id="18" depart="4.50" from="D2D1.80.00" to="B1B2" type="passenger"/>
    <trip id="19" depart="4.85" from="D3E3.80.00" to="A3A4.80.00" type="passenger"/>
    <trip id="20" depart="5.57" from="bottom2C0" to="C0bottom2" type="passenger"/>
    <trip id="21" depart="5.58" from="B0B1" to="C0B0.80.00" type="passenger"/>
    <trip id="22" depart="5.96" from="E0E1.80.00" to="A0A1" type="passenger"/>
    <trip id="23" depart="6.62" from="A3A4.80.00" to="A3A4" type="passenger"/>
    <trip id="24" depart="6.67" from="D0C0" to="right0E0.80.00" type="passenger"/>
    <trip id="25" depart="6.91" from="D4C4" to="C3C2" type="passenger"/>
    <trip id="26" depart="7.43" from="B1B2.80.00" to="D2D3" type="passenger"/>
    <trip id="27" depart="7.99" from="B1A1" to="E2E1" type="passenger"/>
    <trip id="28" depart="8.85" from="E0E1" to="left1A1.80.00" type="passenger"/>
    <trip id="29" depart="9.11" from="bottom1B0.80.00" to="E1E0.80.00" type="passenger"/>
    <trip id="30" depart="9.30" from="B1A1" to="E1E2" type="passenger"/>
    <trip id="31" depart="9.46" from="D3D4" to="A3B3" type="passenger"/>
    <trip id="32" depart="9.70" from="D2C2.80.00" to="E3D3.80.00" type="passenger"/>
    <trip id="33" depart="9.99" from="left0A0" to="B1B0" type="passenger"/>
    <trip id="34" depart="10.67" from="A0A1.80.00" to="B3A3" type="passenger"/>
    <trip id="35" depart="10.70" from="C1D1.80.00" to="A4B4" type="passenger"/>
    <trip id="36" depart="11.54" from="B3A3" to="B1B0" type="passenger"/>
    <trip id="37" depart="11.58" from="E0D0.80.00" to="E0D0.80.00" type="passenger"/>
    <trip id="38" depart="12.43" from="A2A3" to="bottom0A0.80.00" type="passenger"/>
    <trip id="39" depart="12.51" from="A4A3" to="C1D1" type="passenger"/>
    <trip id="40" depart="13.18" from="B2C2.80.00" to="E2E1" type="passenger"/>
    <trip id="41" depart="13.56" from="E0E1.80.00" to="C0C1.80.00" type="passenger"/>
    <trip id="42" depart="13.98" from="B3B2" to="C0bottom2" type="passenger"/>
    <trip id="43" depart="14.15" from="top4E4" to="left2A2.80.00" type="passenger"/>
    <trip id="44" depart="14.20" from="left2A2" to="C3C4" type="passenger"/>
    <trip id="45" depart="15.14" from="B0B1" to="C2B2.80.00" type="passenger"/>
    <trip id="46" depart="15.18" from="B3A3" to="D2E2.80.00" type="passenger"/>
    <trip id="47" depart="15.68" from="A4A3.80.00" to="top0A4.80.00" type="passenger"/>
    <trip id="48" depart="15.69" from="D2D3" to="top0A4.80.00" type="passenger"/>
    <trip id="49" depart="15.83" from="right1E1.80.00" to="A3B3.80.00" type="passenger"/>
    <trip id="50" depart="16.22" from="D3D2.80.00" to="A1A2.80.00" type="passenger"/>
    <trip id="51" depart="16.42" from="D1D0" to="C0C1" type="passenger"/>
    <trip id="52" depart="17.02" from="right3E3" to="E0E1" type="passenger"/>
    <trip id="53" depart="17.31" from="C1C0.80.00" to="E1D1" type="passenger"/>
    <trip id="54" depart="17.38" from="C2D2.80.00" to="D2E2" type="passenger"/>
    <trip id="55" depart="17.78" from="D1C1" to="B0bottom1" type="passenger"/>
    <trip id="56" depart="18.23" from="D1D0" to="A0left0" type="passenger"/>
    <trip id="57" depart="18.28" from="E1D1.80.00" to="B1C1" type="passenger"/>
    <trip id="58" depart="18.65" from="D0E0" to="bottom2C0.80.00" type="passenger"/>
    <trip id="59" depart="19.10" from="D3E3.80.00" to="E3D3" type="passenger"/>
    <trip id="60" depart="20.31" from="top1B4" to="A1left1" type="passenger"/>
    <trip id="61" depart="20.54" from="A2A3" to="E1D1" type="passenger"/>
    <trip id="62" depart="21.81" from="D3D2.80.00" to="E0E1.80.00" type="passenger"/>
    <trip id="63" depart="22.06" from="C2D2.80.00" to="B4C4.80.00" type="passenger"/>
    <trip id="64" depart="22.27" from="A4A3" to="A2A1" type="passenger"/>
    <trip id="65" depart="22.47" from="E4E3" to="B1B0" type="passenger"/>
    <trip id="66" depart="22.71" from="B0A0" to="B4A4" type="passenger"/>
    <trip id="67" depart="22.78" from="bottom0A0.80.00" to="B2C2.80.00" type="passenger"/>
    <trip id="68" depart="23.00" from="bottom4E0.80.00" to="C3C4" type="passenger"/>
    <trip id="69" depart="23.10" from="B0A0" to="top4E4.80.00" type="passenger"/>
    <trip id="70" depart="23.32" from="B3B4.80.00" to="B3B2.80.00" type="passenger"/>
    <trip id="71" depart="23.85" from="B2A2" to="D4D3.80.00" type="passenger"/>
    <trip id="72" depart="24.40" from="left2A2" to="D4D3" type="passenger"/>
    <trip id="73" depart="24.68" from="C3C2.80.00" to="E0bottom4" type="passenger"/>
    <trip id="74" depart="25.07" from="C0B0.80.00" to="D3D4.80.00" type="passenger"/>
    <trip id="75" depart="25.74" from="A3A2" to="D0C0" type="passenger"/>
    <trip id="76" depart="25.84" from="D3C3" to="B2B1" type="passenger"/>
    <trip id="77" depart="26.09" from="D1C1" to="A1A0.80.00" type="passenger"/>
    <trip id="78" depart="26.14" from="B1B2.80.00" to="C1B1" type="passenger"/>
    <trip id="79" depart="26.41" from="C4C3" to="D4C4" type="passenger"/>
    <trip id="80" depart="26.46" from="bottom3D0" to="D0C0.80.00" type="passenger"/>
    <trip id="81" depart="26.65" from="C3C4.80.00" to="B0B1" type="passenger"/>
    <trip id="82" depart="26.70" from="E0E1" to="E2D2.80.00" type="passenger"/>
    <trip id="83" depart="26.82" from="C1C0" to="C1B1.80.00" type="passenger"/>
    <trip id="84" depart="26.91" from="left3A3.80.00" to="B2A2.80.00" type="passenger"/>
    <trip id="85" depart="26.95" from="C3C4.80.00" to="C3C4.80.00" type="passenger"/>
    <trip id="86" depart="28.47" from="A1A0.80.00" to="B1B2.80.00" type="passenger"/>
    <trip id="87" depart="28.47" from="C4D4" to="B0C0" type="passenger"/>
    <trip id="88" depart="28.48" from="C0B0.80.00" to="D2C2" type="passenger"/>
    <trip id="89" depart="28.87" from="D3D4.80.00" to="E3E4" type="passenger"/>
    <trip id="90" depart="28.99" from="D1C1.80.00" to="C4D4.80.00" type="passenger"/>
    <trip id="91" depart="29.20" from="C2C1" to="bottom3D0.80.00" type="passenger"/>
    <trip id="92" depart="29.40" from="E1E0.80.00" to="A2A1.80.00" type="passenger"/>
    <trip id="93" depart="29.59" from="left4A4.80.00" to="bottom4E0.80.00" type="passenger"/>
    <trip id="94" depart="29.65" from="A3A4.80.00" to="A3left3" type="passenger"/>
    <trip id="95" depart="29.82" from="C2B2.80.00" to="top4E4.80.00" type="passenger"/>
    <trip id="96" depart="30.00" from="A3A2" to="D1D2" type="passenger"/>
    <trip id="97" depart="30.17" from="C0C1" to="D2E2.80.00" type="passenger"/>
    <trip id="98" depart="30.72" from="E4D4.80.00" to="A3B3" type="passenger"/>
    <trip id="99" depart="30.74" from="E3D3" to="bottom0A0.80.00" type="passenger"/>
    <trip id="100" depart="31.25" from="C4D4" to="right2E2.80.00" type="passenger"/>
    <trip id="101" depart="32.16" from="B0A0.80.00" to="E2D2.80.00" type="passenger"/>
    <trip id="102" depart="32.35" from="C3C2" to="E2D2" type="passenger"/>
    <trip id="103" depart="32.69" from="right3E3.80.00" to="left2A2.80.00" type="passenger"/>
    <trip id="104" depart="32.78" from="A2B2.80.00" to="right4E4.80.00" type="passenger"/>
    <trip id="105" depart="32.94" from="C0C1.80.00" to="C2C1" type="passenger"/>
    <trip id="106" depart="33.08" from="C4C3" to="B0B1" type="passenger"/>
    <trip id="107" depart="33.10" from="D0E0" to="A4B4" type="passenger"/>
    <trip id="108" depart="33.84" from="D1D2.80.00" to="D2D1" type="passenger"/>
    <trip id="109" depart="34.23" from="left4A4" to="E4top4" type="passenger"/>
    <trip id="110" depart="34.32" from="B0B1" to="C2D2.80.00" type="passenger"/>
    <trip id="111" depart="34.50" from="E2E1" to="bottom1B0.80.00" type="passenger"/>
    <trip id="112" depart="34.69" from="B4C4" to="C2C3.80.00" type="passenger"/>
    <trip id="113" depart="35.24" from="top4E4" to="D4top3" type="passenger"/>
    <trip id="114" depart="35.65" from="D3C3" to="E3E4" type="passenger"/>
    <trip id="115" depart="35.68" from="D4C4.80.00" to="top4E4.80.00" type="passenger"/>
    <trip id="116" depart="36.61" from="B4B3" to="A2A3" type="passenger"/>
    <trip id="117" depart="36.66" from="bottom3D0" to="D1E1" type="passenger"/>
    <trip id="118" depart="37.73" from="E2E3" to="bottom2C0.80.00" type="passenger"/>
    <trip id="119" depart="37.78" from="top2C4.80.00" to="A2A3.80.00" type="passenger"/>
    <trip id="120" depart="37.83" from="C3C4" to="B4A4.80.00" type="passenger"/>
    <trip id="121" depart="38.22" from="E1E0.80.00" to="right0E0.80.00" type="passenger"/>
    <trip id="122" depart="38.46" from="B1B2" to="A0bottom0" type="passenger"/>
    <trip id="123" depart="38.50" from="A3B3" to="E3D3.80.00" type="passenger"/>
    <trip id="124" depart="38.60" from="top1B4" to="D4C4.80.00" type="passenger"/>
    <trip id="125" depart="38.92" from="E1D1.80.00" to="D2E2" type="passenger"/>
    <trip id="126" depart="39.34" from="B2C2" to="D0D1" type="passenger"/>
    <trip id="127" depart="39.42" from="B4B3.80.00" to="A1A2" type="passenger"/>
    <trip id="128" depart="39.52" from="E0E1.80.00" to="D4D3.80.00" type="passenger"/>
    <trip id="129" depart="39.63" from="B3B4" to="D0bottom3" type="passenger"/>
    <trip id="130" depart="39.76" from="E1E0" to="A4B4" type="passenger"/>
    <trip id="131" depart="39.86" from="E2E3.80.00" to="D2D1.80.00" type="passenger"/>
    <trip id="132" depart="40.77" from="B3B4" to="D2C2.80.00" type="passenger"/>
    <trip id="133" depart="41.32" from="C1B1" to="A0left0" type="passenger"/>
    <trip id="134" depart="41.64" from="C1C2.80.00" to="top3D4.80.00" type="passenger"/>
    <trip id="135" depart="42.09" from="B4A4.80.00" to="E3E4.80.00" type="passenger"/>
    <trip id="136" depart="42.31" from="D4E4.80.00" to="C0bottom2" type="passenger"/>
    <trip id="137" depart="42.50" from="B1A1.80.00" to="D0C0.80.00" type="passenger"/>
    <trip id="138" depart="42.60" from="right2E2.80.00" to="bottom1B0.80.00" type="passenger"/>
    <trip id="139" depart="42.62" from="B3A3" to="B4C4.80.00" type="passenger"/>
    <trip id="140" depart="42.80" from="C3C4" to="E2E1" type="passenger"/>
    <trip id="141" depart="42.92" from="A3B3.80.00" to="C3C2" type="passenger"/>
    <trip id="142" depart="42.94" from="B0B1.80.00" to="B3A3.80.00" type="passenger"/>
    <trip id="143" depart="42.96" from="E2E3.80.00" to="E2D2" type="passenger"/>
    <trip id="144" depart="43.00" from="B1B0" to="A4B4" type="passenger"/>
    <trip id="145" depart="43.48" from="B0A0" to="E1right1" type="passenger"/>
    <trip id="146" depart="44.38" from="B2C2.80.00" to="A0A1" type="passenger"/>
    <trip id="147" depart="44.62" from="E3D3" to="D4E4" type="passenger"/>
    <trip id="148" depart="44.75" from="left0A0" to="top1B4.80.00" type="passenger"/>
    <trip id="149" depart="44.88" from="A1A2" to="C4C3.80.00" type="passenger"/>
    <trip id="150" depart="45.07" from="C0D0.80.00" to="B1B0" type="passenger"/>
    <trip id="151" depart="45.28" from="D3D2.80.00" to="C0B0.80.00" type="passenger"/>
    <trip id="152" depart="45.41" from="right2E2" to="C4B4" type="passenger"/>
    <trip id="153" depart="45.58" from="B1C1" to="C3D3.80.00" type="passenger"/>
    <trip id="154" depart="45.93" from="A1B1" to="top2C4.80.00" type="passenger"/>
    <trip id="155" depart="46.14" from="B3A3.80.00" to="E4right4" type="passenger"/>
    <trip id="156" depart="46.27" from="E3E4" to="C2D2" type="passenger"/>
    <trip id="157" depart="46.47" from="C0D0.80.00" to="B3B4.80.00" type="passenger"/>
    <trip id="158" depart="46.53" from="D1D2.80.00" to="A4A3.80.00" type="passenger"/>
    <trip id="159" depart="46.59" from="D0E0.80.00" to="D2D1.80.00" type="passenger"/>
    <trip id="160" depart="46.65" from="A3A4.80.00" to="A0A1.80.00" type="passenger"/>
    <trip id="161" depart="46.96" from="B1B0.80.00" to="D1D0.80.00" type="passenger"/>
    <trip id="162" depart="47.58" from="B1B0.80.00" to="D4D3" type="passenger"/>
    <trip id="163" depart="47.90" from="E2D2" to="A4A3.80.00" type="passenger"/>
    <trip id="164" depart="48.60" from="left1A1" to="B1C1" type="passenger"/>
    <trip id="165" depart="48.65" from="A3B3.80.00" to="C1C2" type="passenger"/>
    <trip id="166" depart="48.93" from="C3C2.80.00" to="D1C1.80.00" type="passenger"/>
    <trip id="167" depart="49.09" from="D3C3.80.00" to="D3D4" type="passenger"/>
    <trip id="168" depart="49.55" from="C0C1" to="C0B0" type="passenger"/>
    <trip id="169" depart="49.60" from="B1B0.80.00" to="A1B1" type="passenger"/>
    <trip id="170" depart="50.51" from="bottom4E0" to="E4E3.80.00" type="passenger"/>
    <trip id="171" depart="50.53" from="A2A3" to="C2B2" type="passenger"/>
    <trip id="172" depart="50.81" from="C1B1.80.00" to="B0A0" type="passenger"/>
    <trip id="173" depart="50.90" from="B4B3" to="D2E2.80.00" type="passenger"/>
    <trip id="174" depart="50.99" from="A4B4" to="A4left4" type="passenger"/>
    <trip id="175" depart="51.20" from="B1C1.80.00" to="bottom2C0.80.00" type="passenger"/>
    <trip id="176" depart="51.86" from="C1B1.80.00" to="E2D2.80.00" type="passenger"/>
    <trip id="177" depart="51.90" from="D0D1" to="top1B4.80.00" type="passenger"/>
    <trip id="178" depart="52.04" from="B3C3.80.00" to="E4D4.80.00" type="passenger"/>
    <trip id="179" depart="52.39" from="left0A0" to="A1B1" type="passenger"/>
    <trip id="180" depart="52.56" from="C2B2.80.00" to="C0C1" type="passenger"/>
    <trip id="181" depart="53.06" from="C2C3.80.00" to="top0A4.80.00" type="passenger"/>
    <trip id="182" depart="53.18" from="C3B3.80.00" to="E4right4" type="passenger"/>
    <trip id="183" depart="53.48" from="A1A2" to="B1C1.80.00" type="passenger"/>
    <trip id="184" depart="53.79" from="B3B2.80.00" to="A2B2" type="passenger"/>
    <trip id="185" depart="53.93" from="D0E0.80.00" to="D1D0" type="passenger"/>
    <trip id="186" depart="54.00" from="bottom3D0" to="left1A1.80.00" type="passenger"/>
    <trip id="187" depart="54.56" from="C2C1" to="D1D0" type="passenger"/>
    <trip id="188" depart="54.58" from="C2C3.80.00" to="A0B0" type="passenger"/>
    <trip id="189" depart="55.21" from="A0A1" to="B4top1" type="passenger"/>
    <trip id="190" depart="55.29" from="C4D4" to="E2D2" type="passenger"/>
    <trip id="191" depart="55.56" from="right4E4.80.00" to="E2D2.80.00" type="passenger"/>
    <trip id="192" depart="55.74" from="D3D4" to="C1B1.80.00" type="passenger"/>
    <trip id="193" depart="56.80" from="C0C1" to="B3B4" type="passenger"/>
    <trip id="194" depart="57.05" from="C4D4" to="E0E1" type="passenger"/>
    <trip id="195" depart="57.14" from="D3D4" to="B3B2.80.00" type="passenger"/>
    <trip id="196" depart="58.58" from="right2E2.80.00" to="C4B4.80.00" type="passenger"/>
    <trip id="197" depart="58.64" from="B1A1" to="A0B0" type="passenger"/>
    <trip id="198" depart="58.73" from="B2A2" to="A4left4" type="passenger"/>
    <trip id="199" depart="58.86" from="D4C4.80.00" to="left1A1.80.00" type="passenger"/>
    <trip id="200" depart="59.00" from="B2A2.80.00" to="B2B1.80.00" type="passenger"/>
    <trip id="201" depart="59.07" from="B2A2.80.00" to="E0E1.80.00" type="passenger"/>
    <trip id="202" depart="59.28" from="D2E2.80.00" to="D0D1.80.00" type="passenger"/>
    <trip id="203" depart="59.38" from="E1E2.80.00" to="A3A4.80.00" type="passenger"/>
    <trip id="204" depart="59.61" from="E0D0" to="C3B3" type="passenger"/>
    <trip id="205" depart="60.18" from="D1D2" to="B1C1.80.00" type="passenger"/>
    <trip id="206" depart="60.44" from="A3A4" to="C3D3.80.00" type="passenger"/>
    <trip id="207" depart="60.55" from="A3A4" to="A1A0" type="passenger"/>
    <trip id="208" depart="60.86" from="D1C1" to="D2D3" type="passenger"/>
    <trip id="209" depart="61.39" from="D1C1.80.00" to="C1D1" type="passenger"/>
    <trip id="210" depart="61.52" from="D2E2.80.00" to="B2B1.80.00" type="passenger"/>
    <trip id="211" depart="62.34" from="B2A2.80.00" to="C2B2" type="passenger"/>
    <trip id="212" depart="62.36" from="top1B4" to="E2E3" type="passenger"/>
    <trip id="213" depart="62.40" from="C3C2.80.00" to="A1A0.80.00" type="passenger"/>
    <trip id="214" depart="62.46" from="C4B4.80.00" to="D4C4.80.00" type="passenger"/>
    <trip id="215" depart="62.49" from="left3A3" to="E1E0" type="passenger"/>
    <trip id="216" depart="62.61" from="D2E2" to="E1E2.80.00" type="passenger"/>
    <trip id="217" depart="62.78" from="D4E4" to="A4B4" type="passenger"/>
    <trip id="218" depart="62.90" from="top3D4" to="D3C3.80.00" type="passenger"/>
    <trip id="219" depart="63.15" from="B0A0.80.00" to="B3C3" type="passenger"/>
    <trip id="220" depart="63.59" from="bottom2C0.80.00" to="D3D2.80.00" type="passenger"/>
    <trip id="221" depart="64.66" from="B1C1" to="top2C4.80.00" type="passenger"/>
    <trip id="222" depart="65.20" from="D2E2.80.00" to="right3E3.80.00" type="passenger"/>
    <trip id="223" depart="65.34" from="C3B3" to="E1E2.80.00" type="passenger"/>
    <trip id="224" depart="65.41" from="B0C0.80.00" to="A2A1" type="passenger"/>
    <trip id="225" depart="65.57" from="D0C0" to="E0right0" type="passenger"/>
    <trip id="226" depart="65.62" from="D0E0" to="left3A3.80.00" type="passenger"/>
    <trip id="227" depart="65.65" from="A0A1" to="C4top2" type="passenger"/>
    <trip id="228" depart="65.80" from="B0A0.80.00" to="A1B1.80.00" type="passenger"/>
    <trip id="229" depart="65.91" from="B3A3" to="D3D2" type="passenger"/>
    <trip id="230" depart="66.02" from="top3D4.80.00" to="D4C4" type="passenger"/>
    <trip id="231" depart="66.21" from="E2E3" to="C0D0.80.00" type="passenger"/>
    <trip id="232" depart="66.35" from="top3D4" to="D4D3" type="passenger"/>
    <trip id="233" depart="66.39" from="D3C3.80.00" to="B0B1" type="passenger"/>
    <trip id="234" depart="66.50" from="A4B4" to="B2B1" type="passenger"/>
    <trip id="235" depart="66.55" from="D3D4" to="E4top4" type="passenger"/>
    <trip id="236" depart="66.82" from="C1B1" to="B2B1.80.00" type="passenger"/>
    <trip id="237" depart="66.88" from="E2E3.80.00" to="A1A0.80.00" type="passenger"/>
    <trip id="238" depart="67.07" from="C1C0.80.00" to="top4E4.80.00" type="passenger"/>
    <trip id="239" depart="67.18" from="C3C4" to="A0B0.80.00" type="passenger"/>
    <trip id="240" depart="67.32" from="D1D2.80.00" to="E0D0.80.00" type="passenger"/>
    <trip id="241" depart="67.55" from="A3A4" to="A0A1.80.00" type="passenger"/>
    <trip id="242" depart="67.87" from="A2A1.80.00" to="E1E2" type="passenger"/>
    <trip id="243" depart="67.94" from="B3B4.80.00" to="D2C2.80.00" type="passenger"/>
    <trip id="244" depart="68.04" from="D4D3" to="D1D2.80.00" type="passenger"/>
    <trip id="245" depart="68.14" from="C0D0" to="bottom4E0.80.00" type="passenger"/>
    <trip id="246" depart="68.26" from="B0C0" to="B0B1" type="passenger"/>
    <trip id="247" depart="68.58" from="D3E3" to="A2A3" type="passenger"/>
    <trip id="248" depart="68.81" from="D3E3.80.00" to="D2C2.80.00" type="passenger"/>
    <trip id="249" depart="68.99" from="D3D4.80.00" to="B1C1.80.00" type="passenger"/>
    <trip id="250" depart="69.98" from="A0A1.80.00" to="E1E2" type="passenger"/>
    <trip id="251" depart="70.88" from="C4D4.80.00" to="E1right1" type="passenger"/>
    <trip id="252" depart="70.91" from="C3C2" to="E1D1" type="passenger"/>
    <trip id="253" depart="71.05" from="E1D1.80.00" to="A4top0" type="passenger"/>
    <trip id="254" depart="71.16" from="E2E1.80.00" to="E0bottom4" type="passenger"/>
    <trip id="255" depart="71.42" from="C3B3.80.00" to="D2C2.80.00" type="passenger"/>
    <trip id="256" depart="71.47" from="C1D1" to="C3C2.80.00" type="passenger"/>
    <trip id="257" depart="71.58" from="top1B4.80.00" to="A2B2.80.00" type="passenger"/>
    <trip id="258" depart="71.68" from="E2E1" to="D4C4.80.00" type="passenger"/>
    <trip id="259" depart="71.89" from="E2E1" to="B0C0" type="passenger"/>
    <trip id="260" depart="72.14" from="C1C0.80.00" to="B2A2.80.00" type="passenger"/>
    <trip id="261" depart="72.31" from="A4A3" to="B0C0" type="passenger"/>
    <trip id="262" depart="72.35" from="E0D0" to="E0E1" type="passenger"/>
    <trip id="263" depart="72.84" from="E2D2" to="A2A1" type="passenger"/>
    <trip id="264" depart="73.28" from="E3E4" to="C1C2.80.00" type="passenger"/>
    <trip id="265" depart="73.61" from="D0E0.80.00" to="B0B1.80.00" type="passenger"/>
    <trip id="266" depart="73.82" from="E1E0.80.00" to="C0B0.80.00" type="passenger"/>
    <trip id="267" depart="74.44" from="A3A2.80.00" to="B3A3.80.00" type="passenger"/>
    <trip id="268" depart="74.50" from="C0B0" to="A2A3" type="passenger"/>
    <trip id="269" depart="74.84" from="left3A3" to="C2C1.80.00" type="passenger"/>
    <trip id="270" depart="74.95" from="D4E4" to="E4D4.80.00" type="passenger"/>
    <trip id="271" depart="75.11" from="D3E3" to="A3A4.80.00" type="passenger"/>
    <trip id="272" depart="77.24" from="E3D3" to="B3C3" type="passenger"/>
    <trip id="273" depart="77.26" from="E3D3.80.00" to="E4right4" type="passenger"/>
    <trip id="274" depart="77.43" from="bottom1B0.80.00" to="C4C3" type="passenger"/>
    <trip id="275" depart="77.76" from="B3B2.80.00" to="E3D3.80.00" type="passenger"/>
    <trip id="276" depart="77.94" from="bottom3D0.80.00" to="B3B2" type="passenger"/>
    <trip id="277" depart="78.02" from="D2E2" to="B4A4" type="passenger"/>
    <trip id="278" depart="78.12" from="C4C3" to="A1A2.80.00" type="passenger"/>
    <trip id="279" depart="78.19" from="D4C4" to="B0bottom1" type="passenger"/>
    <trip id="280" depart="78.61" from="bottom0A0.80.00" to="C2B2.80.00" type="passenger"/>
    <trip id="281" depart="78.62" from="D3D2.80.00" to="B4C4" type="passenger"/>
    <trip id="282" depart="78.71" from="D2D1.80.00" to="E3D3.80.00" type="passenger"/>
    <trip id="283" depart="78.86" from="B2B3" to="D0bottom3" type="passenger"/>
    <trip id="284" depart="79.60" from="D0D1" to="bottom3D0.80.00" type="passenger"/>
    <trip id="285" depart="79.95" from="E4D4.80.00" to="D0bottom3" type="passenger"/>
    <trip id="286" depart="80.06" from="B1C1.80.00" to="A3B3" type="passenger"/>
    <trip id="287" depart="80.10" from="C2C1.80.00" to="C2C1.80.00" type="passenger"/>
    <trip id="288" depart="80.46" from="B2B1" to="D1E1" type="passenger"/>
    <trip id="289" depart="80.59" from="D0D1.80.00" to="E4top4" type="passenger"/>
    <trip id="290" depart="81.47" from="B2B1.80.00" to="C4top2" type="passenger"/>
    <trip id="291" depart="81.76" from="right2E2" to="C3C4.80.00" type="passenger"/>
    <trip id="292" depart="82.50" from="right3E3" to="E2D2.80.00" type="passenger"/>
    <trip id="293" depart="82.63" from="A1A0.80.00" to="top4E4.80.00" type="passenger"/>
    <trip id="294" depart="82.77" from="D1C1" to="E4D4" type="passenger"/>
    <trip id="295" depart="83.06" from="E4E3" to="D2D3" type="passenger"/>
    <trip id="296" depart="83.35" from="B0B1.80.00" to="B2B3" type="passenger"/>
    <trip id="297" depart="83.52" from="A1A2" to="E1D1.80.00" type="passenger"/>
    <trip id="298" depart="83.53" from="B4C4" to="A1left1" type="passenger"/>
    <trip id="299" depart="83.66" from="D1E1.80.00" to="E4D4" type="passenger"/>
    <trip id="300" depart="83.78" from="C3D3" to="left4A4.80.00" type="passenger"/>
    <trip id="301" depart="83.88" from="A0A1.80.00" to="C3C2" type="passenger"/>
    <trip id="302" depart="83.92" from="A3A2" to="D0E0" type="passenger"/>
    <trip id="303" depart="84.48" from="E1E2.80.00" to="A2left2" type="passenger"/>
    <trip id="304" depart="84.49" from="B1B2" to="D3E3.80.00" type="passenger"/>
    <trip id="305" depart="85.17" from="D1D0" to="C4C3.80.00" type="passenger"/>
    <trip id="306" depart="85.21" from="A4B4.80.00" to="B1A1.80.00" type="passenger"/>
    <trip id="307" depart="85.21" from="B1B2" to="E2E1" type="passenger"/>
    <trip id="308" depart="86.10" from="left3A3.80.00" to="B4A4.80.00" type="passenger"/>
    <trip id="309" depart="86.40" from="A2B2.80.00" to="A0A1" type="passenger"/>
    <trip id="310" depart="86.72" from="B0C0.80.00" to="A2A1.80.00" type="passenger"/>
    <trip id="311" depart="87.01" from="left2A2" to="A3left3" type="passenger"/>
    <trip id="312" depart="87.10" from="right3E3" to="D0D1.80.00" type="passenger"/>
    <trip id="313" depart="87.47" from="B3B2.80.00" to="B2B1" type="passenger"/>
    <trip id="314" depart="87.51" from="B0A0.80.00" to="B0C0.80.00" type="passenger"/>
    <trip id="315" depart="87.64" from="C3C2" to="bottom0A0.80.00" type="passenger"/>
    <trip id="316" depart="87.92" from="B3B2" to="B1C1.80.00" type="passenger"/>
    <trip id="317" depart="88.58" from="E2D2.80.00" to="A2A3" type="passenger"/>
    <trip id="318" depart="88.64" from="B1C1" to="C2C1" type="passenger"/>
    <trip id="319" depart="88.84" from="B0A0.80.00" to="A0B0" type="passenger"/>
    <trip id="320" depart="89.19" from="C2C1.80.00" to="D2D1.80.00" type="passenger"/>
    <trip id="321" depart="89.56" from="bottom0A0.80.00" to="B3B4.80.00" type="passenger"/>
    <trip id="322" depart="89.74" from="D4D3" to="B3B4" type="passenger"/>
    <trip id="323" depart="90.12" from="E1E0" to="C2C3.80.00" type="passenger"/>
    <trip id="324" depart="90.38" from="C0C1" to="C0D0.80.00" type="passenger"/>
    <trip id="325" depart="91.65" from="E1E0" to="right0E0.80.00" type="passenger"/>
    <trip id="326" depart="92.13" from="E3E4" to="C3B3" type="passenger"/>
    <trip id="327" depart="92.19" from="C2C3" to="B2C2.80.00" type="passenger"/>
    <trip id="328" depart="92.49" from="A4B4.80.00" to="D4E4.80.00" type="passenger"/>
    <trip id="329" depart="92.66" from="D0E0" to="D1C1.80.00" type="passenger"/>
    <trip id="330" depart="92.67" from="left3A3" to="C1C2.80.00" type="passenger"/>
    <trip id="331" depart="92.70" from="B2B1.80.00" to="E4E3" type="passenger"/>
    <trip id="332" depart="92.79" from="top4E4.80.00" to="E4right4" type="passenger"/>
    <trip id="333" depart="92.94" from="A4A3" to="D3D4.80.00" type="passenger"/>
    <trip id="334" depart="92.94" from="D1E1" to="C4B4" type="passenger"/>
    <trip id="335" depart="93.53" from="C1B1.80.00" to="C2C3" type="passenger"/>
    <trip id="336" depart="93.77" from="right2E2.80.00" to="D3D4" type="passenger"/>
    <trip id="337" depart="93.88" from="B3B4.80.00" to="left3A3.80.00" type="passenger"/>
    <trip id="338" depart="94.86" from="C4B4" to="B3C3.80.00" type="passenger"/>
    <trip id="339" depart="95.34" from="left4A4" to="D3D4" type="passenger"/>
    <trip id="340" depart="95.38" from="A2A3.80.00" to="C3C2.80.00" type="passenger"/>
    <trip id="341" depart="95.55" from="right0E0.80.00" to="E1D1" type="passenger"/>
    <trip id="342" depart="95.93" from="E1E2" to="D0D1" type="passenger"/>
    <trip id="343" depart="96.06" from="B3C3" to="A0B0" type="passenger"/>
    <trip id="344" depart="96.40" from="D2E2.80.00" to="left4A4.80.00" type="passenger"/>
    <trip id="345" depart="96.66" from="left1A1.80.00" to="C3C2" type="passenger"/>
    <trip id="346" depart="96.69" from="B2B1.80.00" to="C2C3" type="passenger"/>
    <trip id="347" depart="97.11" from="D1D0" to="C1C2.80.00" type="passenger"/>
    <trip id="348" depart="97.72" from="left2A2.80.00" to="A3A4.80.00" type="passenger"/>
    <trip id="349" depart="97.78" from="D4E4.80.00" to="D1E1.80.00" type="passenger"/>
    <trip id="350" depart="99.68" from="right0E0.80.00" to="C4D4" type="passenger"/>
    <trip id="351" depart="99.91" from="D3D2.80.00" to="C0C1" type="passenger"/>
    <trip id="352" depart="100.19" from="E1E2.80.00" to="D0D1" type="passenger"/>
    <trip id="353" depart="100.44" from="right1E1" to="D2D3" type="passenger"/>
    <trip id="354" depart="100.56" from="C2C1" to="C3C4" type="passenger"/>