<?xml version="1.0" encoding="UTF-8"?>

<!-- generated on 2023-02-12 18:47:14.186941 by randomTrips.py UNKNOWN
<configuration>
    <begin value="0"/>
    <end value="900"/>
    <insertion-rate value="12500.0"/>
    <net-file value="/home/franky3er/Documents/code/HieraGLight/scenarios/grid/5x5-150m/train/92-scenario/network.net.xml"/>
    <random value="True"/>
    <random-depart value="True"/>
    <route-file value="/home/franky3er/Documents/code/HieraGLight/scenarios/grid/5x5-150m/train/92-scenario/routes.rou.xml"/>
    <seed value="92"/>
    <output-trip-file value="/home/franky3er/Documents/code/HieraGLight/scenarios/grid/5x5-150m/train/92-scenario/trips.trips.xml"/>
    <vehicle-class value="passenger"/>
</configuration>
-->

<routes xmlns:xsi="http://www.w3.org/2001/XMLSchema-instance" xsi:noNamespaceSchemaLocation="http://sumo.dlr.de/xsd/routes_file.xsd">
    <vType id="passenger" vClass="passenger"/>
    <trip id="0" depart="0.02" from="right2E2.80.00" to="E0D0.80.00" type="passenger"/>
    <trip id="1" depart="0.20" from="A4A3" to="B0bottom1" type="passenger"/>
    <trip id="2" depart="0.73" from="D2E2.80.00" to="E3D3.80.00" type="passenger"/>
    <trip id="3" depart="0.95" from="top0A4.80.00" to="E2right2" type="passenger"/>
    <trip id="4" depart="1.02" from="A2B2.80.00" to="top4E4.80.00" type="passenger"/>
    <trip id="5" depart="1.11" from="bottom0A0" to="E4E3.80.00" type="passenger"/>
    <trip id="6" depart="1.42" from="bottom3D0.80.00" to="B0A0.80.00" type="passenger"/>
    <trip id="7" depart="1.87" from="D2E2" to="D0D1" type="passenger"/>
    <trip id="8" depart="2.67" from="D3D4" to="A4left4" type="passenger"/>
    <trip id="9" depart="2.79" from="right4E4" to="B2A2.80.00" type="passenger"/>
    <trip id="10" depart="2.86" from="C3C4" to="E2E3" type="passenger"/>
    <trip id="11" depart="3.86" from="A1B1.80.00" to="D4D3.80.00" type="passenger"/>
    <trip id="12" depart="4.75" from="B1B2" to="D3E3" type="passenger"/>
    <trip id="13" depart="4.91" from="C3B3.80.00" to="D0C0.80.00" type="passenger"/>
    <trip id="14" depart="5.08" from="E3D3.80.00" to="C0C1" type="passenger"/>
    <trip id="15" depart="6.12" from="A1B1.80.00" to="E4E3" type="passenger"/>
    <trip id="16" depart="6.46" from="C2C3" to="D1D2.80.00" type="passenger"/>
    <trip id="17" depart="6.74" from="A2B2" to="D3E3.80.00" type="passenger"/>
    <trip id="18" depart="6.96" from="C3B3" to="C4D4.80.00" type="passenger"/>
    <trip id="19" depart="7.13" from="C1C0" to="E0E1.80.00" type="passenger"/>
    <trip id="20" depart="7.31" from="C2D2" to="B4C4" type="passenger"/>
    <trip id="21" depart="7.74" from="A1A0.80.00" to="C1B1" type="passenger"/>
    <trip id="22" depart="7.85" from="right3E3.80.00" to="B1A1" type="passenger"/>
    <trip id="23" depart="8.63" from="A3B3" to="A4A3" type="passenger"/>
    <trip id="24" depart="9.41" from="D4E4.80.00" to="C4C3.80.00" type="passenger"/>
    <trip id="25" depart="9.42" from="top3D4" to="bottom3D0.80.00" type="passenger"/>
    <trip id="26" depart="10.09" from="D2D3" to="D1D2.80.00" type="passenger"/>
    <trip id="27" depart="10.26" from="bottom0A0" to="right3E3.80.00" type="passenger"/>
    <trip id="28" depart="10.58" from="B4B3" to="A1A2" type="passenger"/>
    <trip id="29" depart="11.21" from="B2B1.80.00" to="E0right0" type="passenger"/>
    <trip id="30" depart="11.36" from="C4D4" to="C4top2" type="passenger"/>
    <trip id="31" depart="11.54" from="B3A3" to="D2E2.80.00" type="passenger"/>
    <trip id="32" depart="11.65" from="left1A1.80.00" to="C2C1" type="passenger"/>
    <trip id="33" depart="12.10" from="B3B2" to="D1C1" type="passenger"/>
    <trip id="34" depart="12.29" from="B4B3" to="E1E0" type="passenger"/>
    <trip id="35" depart="12.49" from="left2A2" to="B4A4.80.00" type="passenger"/>
    <trip id="36" depart="12.79" from="A0A1.80.00" to="C0B0" type="passenger"/>
    <trip id="37" depart="12.98" from="E3E2.80.00" to="B3C3.80.00" type="passenger"/>
    <trip id="38" depart="13.41" from="D1C1" to="D4E4" type="passenger"/>
    <trip id="39" depart="13.44" from="C2C1.80.00" to="D2E2.80.00" type="passenger"/>
    <trip id="40" depart="13.59" from="B1B0.80.00" to="B0B1" type="passenger"/>
    <trip id="41" depart="14.94" from="D4C4" to="A1A0" type="passenger"/>
    <trip id="42" depart="15.25" from="E3D3.80.00" to="left4A4.80.00" type="passenger"/>
    <trip id="43" depart="15.29" from="C3C2" to="B3B2" type="passenger"/>
    <trip id="44" depart="16.21" from="C3C2.80.00" to="B1C1" type="passenger"/>
    <trip id="45" depart="16.45" from="C2B2.80.00" to="B0C0" type="passenger"/>
    <trip id="46" depart="16.53" from="B3B4" to="B3B2.80.00" type="passenger"/>
    <trip id="47" depart="16.62" from="C4B4" to="E2E3.80.00" type="passenger"/>
    <trip id="48" depart="16.69" from="C2D2" to="B2B1" type="passenger"/>
    <trip id="49" depart="16.69" from="D0E0" to="A3A2" type="passenger"/>
    <trip id="50" depart="16.90" from="left4A4" to="C2B2" type="passenger"/>
    <trip id="51" depart="17.14" from="B0A0" to="left0A0.80.00" type="passenger"/>
    <trip id="52" depart="17.26" from="D3C3" to="B0C0.80.00" type="passenger"/>
    <trip id="53" depart="18.14" from="D4C4" to="D4D3" type="passenger"/>
    <trip id="54" depart="18.55" from="E1E0" to="E2E1" type="passenger"/>
    <trip id="55" depart="18.88" from="right1E1.80.00" to="C1B1.80.00" type="passenger"/>
    <trip id="56" depart="19.54" from="A1A2.80.00" to="A1A0.80.00" type="passenger"/>
    <trip id="57" depart="20.07" from="E3E4.80.00" to="C2C1.80.00" type="passenger"/>
    <trip id="58" depart="20.18" from="B1A1.80.00" to="D0D1.80.00" type="passenger"/>
    <trip id="59" depart="20.66" from="D2D3.80.00" to="A3A4.80.00" type="passenger"/>
    <trip id="60" depart="20.74" from="E3D3" to="right0E0.80.00" type="passenger"/>
    <trip id="61" depart="20.88" from="B2C2" to="A0B0" type="passenger"/>
    <trip id="62" depart="21.42" from="A3B3" to="left4A4.80.00" type="passenger"/>
    <trip id="63" depart="21.60" from="B3B4.80.00" to="D3D4.80.00" type="passenger"/>
    <trip id="64" depart="22.37" from="D3D2" to="E1E0.80.00" type="passenger"/>
    <trip id="65" depart="22.55" from="C3C4.80.00" to="D2D3.80.00" type="passenger"/>
    <trip id="66" depart="22.58" from="B4C4.80.00" to="E3E2" type="passenger"/>
    <trip id="67" depart="23.02" from="bottom3D0" to="C0B0" type="passenger"/>
    <trip id="68" depart="23.06" from="left2A2.80.00" to="C3D3.80.00" type="passenger"/>
    <trip id="69" depart="23.36" from="B0B1" to="C4B4.80.00" type="passenger"/>
    <trip id="70" depart="23.48" from="C3B3.80.00" to="E2E3.80.00" type="passenger"/>
    <trip id="71" depart="23.50" from="D3C3" to="left2A2.80.00" type="passenger"/>
    <trip id="72" depart="23.57" from="C3C4" to="B2B1" type="passenger"/>
    <trip id="73" depart="23.87" from="A2B2" to="D1E1" type="passenger"/>
    <trip id="74" depart="24.20" from="C0C1.80.00" to="E2E1" type="passenger"/>
    <trip id="75" depart="25.02" from="C1C2.80.00" to="E3E2" type="passenger"/>
    <trip id="76" depart="25.41" from="left1A1.80.00" to="B3B4.80.00" type="passenger"/>
    <trip id="77" depart="25.79" from="C0C1" to="C4B4.80.00" type="passenger"/>
    <trip id="78" depart="25.91" from="A2A1.80.00" to="A4B4" type="passenger"/>
    <trip id="79" depart="26.27" from="right3E3" to="B1B0" type="passenger"/>
    <trip id="80" depart="26.38" from="B1A1.80.00" to="A3B3" type="passenger"/>
    <trip id="81" depart="26.46" from="B1C1" to="A4B4.80.00" type="passenger"/>
    <trip id="82" depart="26.49" from="E2E3.80.00" to="A4B4" type="passenger"/>
    <trip id="83" depart="26.59" from="B0B1" to="C2C1" type="passenger"/>
    <trip id="84" depart="26.76" from="B1B0" to="C3B3" type="passenger"/>
    <trip id="85" depart="26.87" from="C4B4" to="E2E3.80.00" type="passenger"/>
    <trip id="86" depart="27.20" from="top2C4.80.00" to="D0D1.80.00" type="passenger"/>
    <trip id="87" depart="27.54" from="C4B4.80.00" to="E3D3" type="passenger"/>
    <trip id="88" depart="27.70" from="C3C2.80.00" to="B2A2.80.00" type="passenger"/>
    <trip id="89" depart="27.82" from="D4C4.80.00" to="A1A2" type="passenger"/>
    <trip id="90" depart="28.29" from="D4C4.80.00" to="A0B0" type="passenger"/>
    <trip id="91" depart="28.42" from="left4A4.80.00" to="A3left3" type="passenger"/>
    <trip id="92" depart="28.54" from="B4C4" to="B1A1" type="passenger"/>
    <trip id="93" depart="28.93" from="B4B3.80.00" to="A4top0" type="passenger"/>
    <trip id="94" depart="29.09" from="C0D0" to="C0C1.80.00" type="passenger"/>
    <trip id="95" depart="29.10" from="C3C4" to="D1E1" type="passenger"/>
    <trip id="96" depart="29.13" from="left4A4" to="D0E0.80.00" type="passenger"/>
    <trip id="97" depart="29.95" from="D4D3.80.00" to="right0E0.80.00" type="passenger"/>
    <trip id="98" depart="30.82" from="C0C1" to="D4C4.80.00" type="passenger"/>
    <trip id="99" depart="30.82" from="D2C2.80.00" to="C3C4" type="passenger"/>
    <trip id="100" depart="31.17" from="A1A0" to="E3E2.80.00" type="passenger"/>
    <trip id="101" depart="31.44" from="E1D1" to="C2B2.80.00" type="passenger"/>
    <trip id="102" depart="31.51" from="C2B2.80.00" to="E2D2.80.00" type="passenger"/>
    <trip id="103" depart="31.56" from="E0D0.80.00" to="D3D4" type="passenger"/>
    <trip id="104" depart="31.82" from="E1E0.80.00" to="A0A1" type="passenger"/>
    <trip id="105" depart="32.12" from="A4B4" to="E2E3.80.00" type="passenger"/>
    <trip id="106" depart="32.38" from="E1E0" to="B4B3" type="passenger"/>
    <trip id="107" depart="33.03" from="D0D1.80.00" to="A0A1.80.00" type="passenger"/>
    <trip id="108" depart="33.10" from="E2E1.80.00" to="C2C1.80.00" type="passenger"/>
    <trip id="109" depart="33.27" from="A4B4" to="bottom1B0.80.00" type="passenger"/>
    <trip id="110" depart="33.55" from="E3E4" to="B0bottom1" type="passenger"/>
    <trip id="111" depart="33.78" from="bottom0A0" to="A1B1.80.00" type="passenger"/>
    <trip id="112" depart="34.30" from="C2C1.80.00" to="A0A1.80.00" type="passenger"/>
    <trip id="113" depart="34.42" from="B3B4" to="B4C4.80.00" type="passenger"/>
    <trip id="114" depart="34.74" from="C1C2" to="C3C2.80.00" type="passenger"/>
    <trip id="115" depart="35.25" from="B3B4" to="B4C4" type="passenger"/>
    <trip id="116" depart="35.48" from="B3A3" to="E1D1.80.00" type="passenger"/>
    <trip id="117" depart="36.74" from="A3B3" to="bottom3D0.80.00" type="passenger"/>
    <trip id="118" depart="37.42" from="B4A4" to="E1E0.80.00" type="passenger"/>
    <trip id="119" depart="37.90" from="B2C2" to="B1C1.80.00" type="passenger"/>
    <trip id="120" depart="37.93" from="A0A1" to="A2A1" type="passenger"/>
    <trip id="121" depart="38.23" from="C3C4.80.00" to="B3A3.80.00" type="passenger"/>
    <trip id="122" depart="38.36" from="E2E3" to="A0bottom0" type="passenger"/>
    <trip id="123" depart="38.39" from="B3C3.80.00" to="B3C3" type="passenger"/>
    <trip id="124" depart="38.88" from="D3E3" to="B4A4.80.00" type="passenger"/>
    <trip id="125" depart="38.98" from="B3C3" to="D0C0" type="passenger"/>
    <trip id="126" depart="39.19" from="C4B4.80.00" to="A3left3" type="passenger"/>
    <trip id="127" depart="39.21" from="A2B2.80.00" to="A0bottom0" type="passenger"/>
    <trip id="128" depart="39.34" from="C0C1" to="E3E2.80.00" type="passenger"/>
    <trip id="129" depart="39.44" from="E2D2" to="C1D1.80.00" type="passenger"/>
    <trip id="130" depart="39.48" from="C3C2" to="E2E3" type="passenger"/>
    <trip id="131" depart="39.58" from="D1E1" to="B4C4.80.00" type="passenger"/>
    <trip id="132" depart="39.98" from="E4E3.80.00" to="B4C4" type="passenger"/>
    <trip id="133" depart="40.16" from="B3C3.80.00" to="C1B1.80.00" type="passenger"/>
    <trip id="134" depart="40.43" from="B0C0.80.00" to="A4A3" type="passenger"/>
    <trip id="135" depart="40.57" from="A2B2" to="B4A4" type="passenger"/>
    <trip id="136" depart="40.64" from="right4E4" to="B0B1" type="passenger"/>
    <trip id="137" depart="40.71" from="B3B2.80.00" to="C0C1.80.00" type="passenger"/>
    <trip id="138" depart="40.73" from="E2E1.80.00" to="right1E1.80.00" type="passenger"/>
    <trip id="139" depart="41.10" from="D1E1.80.00" to="E1E0.80.00" type="passenger"/>
    <trip id="140" depart="41.18" from="E0D0.80.00" to="D0D1.80.00" type="passenger"/>
    <trip id="141" depart="41.50" from="bottom2C0" to="right3E3.80.00" type="passenger"/>
    <trip id="142" depart="42.10" from="E1E0" to="B2B3.80.00" type="passenger"/>
    <trip id="143" depart="42.60" from="bottom1B0.80.00" to="A3B3.80.00" type="passenger"/>
    <trip id="144" depart="42.76" from="right2E2" to="E2E3.80.00" type="passenger"/>
    <trip id="145" depart="43.66" from="C4C3" to="B4C4.80.00" type="passenger"/>
    <trip id="146" depart="44.40" from="B1A1" to="right1E1.80.00" type="passenger"/>
    <trip id="147" depart="45.02" from="D0E0.80.00" to="A4B4" type="passenger"/>
    <trip id="148" depart="45.06" from="C0D0" to="D3E3.80.00" type="passenger"/>
    <trip id="149" depart="45.07" from="C3B3.80.00" to="C1D1.80.00" type="passenger"/>
    <trip id="150" depart="45.37" from="C1C2.80.00" to="E2D2.80.00" type="passenger"/>
    <trip id="151" depart="45.54" from="C4D4.80.00" to="A0bottom0" type="passenger"/>
    <trip id="152" depart="45.68" from="C1D1.80.00" to="D1C1.80.00" type="passenger"/>
    <trip id="153" depart="45.81" from="E3E4.80.00" to="right4E4.80.00" type="passenger"/>
    <trip id="154" depart="46.12" from="A3B3" to="B2C2" type="passenger"/>
    <trip id="155" depart="46.46" from="C3B3" to="A2A3" type="passenger"/>
    <trip id="156" depart="46.98" from="top2C4.80.00" to="A2A1" type="passenger"/>
    <trip id="157" depart="47.44" from="bottom4E0.80.00" to="A4left4" type="passenger"/>
    <trip id="158" depart="47.66" from="A0B0" to="E0right0" type="passenger"/>
    <trip id="159" depart="47.70" from="bottom2C0.80.00" to="C4top2" type="passenger"/>
    <trip id="160" depart="47.74" from="B2B1" to="B0bottom1" type="passenger"/>
    <trip id="161" depart="48.27" from="D1E1.80.00" to="D2C2.80.00" type="passenger"/>
    <trip id="162" depart="48.76" from="D1C1" to="E4top4" type="passenger"/>
    <trip id="163" depart="49.10" from="C3D3.80.00" to="A3A2.80.00" type="passenger"/>
    <trip id="164" depart="50.12" from="right3E3" to="C1C2.80.00" type="passenger"/>
    <trip id="165" depart="50.20" from="A1B1" to="C4top2" type="passenger"/>
    <trip id="166" depart="50.26" from="D3D4.80.00" to="B2B3.80.00" type="passenger"/>
    <trip id="167" depart="50.42" from="D1C1.80.00" to="D0D1" type="passenger"/>
    <trip id="168" depart="50.58" from="E1E2" to="D0E0" type="passenger"/>
    <trip id="169" depart="50.83" from="top1B4" to="B3C3" type="passenger"/>
    <trip id="170" depart="50.92" from="E3D3.80.00" to="left4A4.80.00" type="passenger"/>
    <trip id="171" depart="51.06" from="C0B0" to="left3A3.80.00" type="passenger"/>
    <trip id="172" depart="51.23" from="A3A4.80.00" to="E4D4" type="passenger"/>
    <trip id="173" depart="51.40" from="D2C2.80.00" to="A0B0" type="passenger"/>
    <trip id="174" depart="51.86" from="D4D3" to="A1left1" type="passenger"/>
    <trip id="175" depart="51.91" from="C3C2" to="C0D0.80.00" type="passenger"/>
    <trip id="176" depart="52.70" from="E2D2" to="C4D4.80.00" type="passenger"/>
    <trip id="177" depart="53.32" from="C3C4.80.00" to="E3D3" type="passenger"/>
    <trip id="178" depart="53.41" from="C3C2.80.00" to="E2E1" type="passenger"/>
    <trip id="179" depart="53.98" from="right2E2.80.00" to="B4C4" type="passenger"/>
    <trip id="180" depart="55.36" from="right0E0" to="D0E0" type="passenger"/>
    <trip id="181" depart="55.62" from="E2E3.80.00" to="A2B2.80.00" type="passenger"/>
    <trip id="182" depart="55.92" from="E1E2.80.00" to="E3E4.80.00" type="passenger"/>
    <trip id="183" depart="56.30" from="top4E4" to="B1B2" type="passenger"/>
    <trip id="184" depart="56.75" from="C0B0.80.00" to="right1E1.80.00" type="passenger"/>
    <trip id="185" depart="57.21" from="E3D3.80.00" to="D1D2" type="passenger"/>
    <trip id="186" depart="57.70" from="C2B2.80.00" to="C2D2" type="passenger"/>
    <trip id="187" depart="58.54" from="C0D0" to="C2C1.80.00" type="passenger"/>
    <trip id="188" depart="59.87" from="A0A1.80.00" to="D3E3.80.00" type="passenger"/>
    <trip id="189" depart="60.30" from="top1B4" to="D3E3.80.00" type="passenger"/>
    <trip id="190" depart="60.37" from="C4C3" to="A2A1" type="passenger"/>
    <trip id="191" depart="60.41" from="D2D3" to="A1A2" type="passenger"/>
    <trip id="192" depart="60.55" from="right3E3.80.00" to="C3C4" type="passenger"/>
    <trip id="193" depart="60.78" from="C1B1" to="C2C3.80.00" type="passenger"/>
    <trip id="194" depart="60.80" from="E1E2.80.00" to="D2C2" type="passenger"/>
    <trip id="195" depart="61.05" from="D4D3" to="D4E4.80.00" type="passenger"/>
    <trip id="196" depart="61.20" from="right3E3" to="A2left2" type="passenger"/>
    <trip id="197" depart="61.63" from="B2B3" to="D2D3" type="passenger"/>
    <trip id="198" depart="62.02" from="D2D3" to="C1C0.80.00" type="passenger"/>
    <trip id="199" depart="62.04" from="left2A2" to="A4B4" type="passenger"/>
    <trip id="200" depart="62.53" from="D1C1" to="A1A2" type="passenger"/>
    <trip id="201" depart="62.95" from="D2D1.80.00" to="C1C0" type="passenger"/>
    <trip id="202" depart="63.10" from="C2D2" to="E0D0.80.00" type="passenger"/>
    <trip id="203" depart="64.23" from="bottom1B0.80.00" to="B2B3" type="passenger"/>
    <trip id="204" depart="64.42" from="D3C3.80.00" to="A4B4" type="passenger"/>
    <trip id="205" depart="64.52" from="D2E2" to="bottom0A0.80.00" type="passenger"/>
    <trip id="206" depart="64.60" from="C0D0" to="E4right4" type="passenger"/>
    <trip id="207" depart="64.74" from="B2C2.80.00" to="C3D3.80.00" type="passenger"/>
    <trip id="208" depart="64.83" from="D2D1.80.00" to="left3A3.80.00" type="passenger"/>
    <trip id="209" depart="65.29" from="A4B4" to="bottom2C0.80.00" type="passenger"/>
    <trip id="210" depart="65.32" from="E1D1" to="C4D4" type="passenger"/>
    <trip id="211" depart="65.42" from="C1C2" to="A1A0.80.00" type="passenger"/>
    <trip id="212" depart="65.55" from="B2C2" to="B0B1" type="passenger"/>
    <trip id="213" depart="65.78" from="bottom0A0.80.00" to="E3D3" type="passenger"/>
    <trip id="214" depart="65.86" from="D4E4.80.00" to="B1C1" type="passenger"/>
    <trip id="215" depart="66.25" from="C4C3" to="B0bottom1" type="passenger"/>
    <trip id="216" depart="66.51" from="bottom4E0.80.00" to="E4E3.80.00" type="passenger"/>
    <trip id="217" depart="67.15" from="A3B3.80.00" to="C3B3.80.00" type="passenger"/>
    <trip id="218" depart="67.35" from="C2D2" to="E0E1" type="passenger"/>
    <trip id="219" depart="67.36" from="A2A3.80.00" to="E3right3" type="passenger"/>
    <trip id="220" depart="68.07" from="C1D1" to="C2C3" type="passenger"/>
    <trip id="221" depart="69.57" from="A0B0.80.00" to="D4C4.80.00" type="passenger"/>
    <trip id="222" depart="70.60" from="B2A2.80.00" to="E0E1" type="passenger"/>
    <trip id="223" depart="70.83" from="D4E4.80.00" to="A4left4" type="passenger"/>
    <trip id="224" depart="70.86" from="C3D3.80.00" to="D0D1.80.00" type="passenger"/>
    <trip id="225" depart="71.37" from="A2A1.80.00" to="E4top4" type="passenger"/>
    <trip id="226" depart="72.12" from="left1A1.80.00" to="D0E0.80.00" type="passenger"/>
    <trip id="227" depart="72.24" from="C2C1.80.00" to="E0E1.80.00" type="passenger"/>
    <trip id="228" depart="72.26" from="D4D3.80.00" to="A2B2" type="passenger"/>
    <trip id="229" depart="73.23" from="bottom0A0.80.00" to="B4C4" type="passenger"/>
    <trip id="230" depart="73.28" from="E4E3.80.00" to="left0A0.80.00" type="passenger"/>
    <trip id="231" depart="73.63" from="bottom3D0.80.00" to="B1B0.80.00" type="passenger"/>
    <trip id="232" depart="73.74" from="D2D1" to="B2B1.80.00" type="passenger"/>
    <trip id="233" depart="74.64" from="right1E1.80.00" to="E4D4" type="passenger"/>
    <trip id="234" depart="75.23" from="C0D0" to="E4top4" type="passenger"/>
    <trip id="235" depart="75.26" from="C3B3.80.00" to="A2A1" type="passenger"/>
    <trip id="236" depart="77.29" from="B4B3" to="top4E4.80.00" type="passenger"/>
    <trip id="237" depart="77.48" from="right2E2" to="C3B3" type="passenger"/>
    <trip id="238" depart="77.50" from="D3D4.80.00" to="B3B4.80.00" type="passenger"/>
    <trip id="239" depart="77.51" from="D3D2" to="D1E1" type="passenger"/>
    <trip id="240" depart="77.60" from="B2C2" to="C2C1.80.00" type="passenger"/>
    <trip id="241" depart="77.88" from="bottom0A0" to="C3B3" type="passenger"/>
    <trip id="242" depart="77.98" from="A3A4" to="A3A4" type="passenger"/>
    <trip id="243" depart="78.04" from="E2D2" to="B3B2.80.00" type="passenger"/>
    <trip id="244" depart="78.30" from="right0E0.80.00" to="D2C2" type="passenger"/>
    <trip id="245" depart="78.39" from="B2A2.80.00" to="C2D2.80.00" type="passenger"/>
    <trip id="246" depart="78.46" from="D3D4.80.00" to="D4top3" type="passenger"/>
    <trip id="247" depart="78.86" from="A3A4" to="B2B1" type="passenger"/>
    <trip id="248" depart="78.94" from="D2D3.80.00" to="D3D4" type="passenger"/>
    <trip id="249" depart="79.37" from="D1D2.80.00" to="C3C4" type="passenger"/>
    <trip id="250" depart="79.70" from="B3B4.80.00" to="C0B0.80.00" type="passenger"/>
    <trip id="251" depart="79.82" from="C4C3" to="C3C4.80.00" type="passenger"/>
    <trip id="252" depart="79.98" from="A3B3" to="A3A2.80.00" type="passenger"/>
    <trip id="253" depart="81.66" from="bottom3D0.80.00" to="C0bottom2" type="passenger"/>
    <trip id="254" depart="81.72" from="B1C1" to="C1D1.80.00" type="passenger"/>
    <trip id="255" depart="81.87" from="A1B1.80.00" to="C2B2" type="passenger"/>
    <trip id="256" depart="82.41" from="left4A4.80.00" to="C1B1.80.00" type="passenger"/>
    <trip id="257" depart="82.70" from="bottom1B0.80.00" to="A3B3.80.00" type="passenger"/>
    <trip id="258" depart="82.95" from="A3B3" to="D3C3" type="passenger"/>
    <trip id="259" depart="83.58" from="B3B2.80.00" to="B1A1" type="passenger"/>
    <trip id="260" depart="83.90" from="D1E1" to="E1E2.80.00" type="passenger"/>
    <trip id="261" depart="83.94" from="top3D4" to="E1E0" type="passenger"/>
    <trip id="262" depart="84.15" from="D1D0.80.00" to="C1B1" type="passenger"/>
    <trip id="263" depart="84.78" from="C4B4.80.00" to="E0right0" type="passenger"/>
    <trip id="264" depart="84.79" from="C3C2.80.00" to="B0A0.80.00" type="passenger"/>
    <trip id="265" depart="84.90" from="B0A0" to="right3E3.80.00" type="passenger"/>
    <trip id="266" depart="85.32" from="E2E1.80.00" to="D3D4.80.00" type="passenger"/>
    <trip id="267" depart="86.14" from="B0A0.80.00" to="A1A2" type="passenger"/>
    <trip id="268" depart="87.25" from="D0D1.80.00" to="E3right3" type="passenger"/>
    <trip id="269" depart="87.36" from="C2D2.80.00" to="D3C3.80.00" type="passenger"/>
    <trip id="270" depart="87.54" from="E3D3" to="A1left1" type="passenger"/>
    <trip id="271" depart="87.74" from="B3B2" to="E2D2.80.00" type="passenger"/>
    <trip id="272" depart="88.06" from="D0E0.80.00" to="A4left4" type="passenger"/>
    <trip id="273" depart="88.14" from="B2B3" to="left1A1.80.00" type="passenger"/>
    <trip id="274" depart="88.23" from="B2B3.80.00" to="C4C3.80.00" type="passenger"/>
    <trip id="275" depart="88.61" from="B3B4" to="E2D2" type="passenger"/>
    <trip id="276" depart="88.62" from="A3B3.80.00" to="D0D1.80.00" type="passenger"/>
    <trip id="277" depart="88.95" from="top2C4" to="C2C1.80.00" type="passenger"/>
    <trip id="278" depart="89.04" from="A0A1" to="A3A2.80.00" type="passenger"/>
    <trip id="279" depart="89.22" from="D3E3.80.00" to="E2E3.80.00" type="passenger"/>
    <trip id="280" depart="89.22" from="B2B1.80.00" to="C2B2" type="passenger"/>
    <trip id="281" depart="89.38" from="E2E3" to="B4top1" type="passenger"/>
    <trip id="282" depart="90.74" from="A1A0" to="D4C4.80.00" type="passenger"/>
    <trip id="283" depart="91.02" from="C3C2.80.00" to="D1D0.80.00" type="passenger"/>
    <trip id="284" depart="91.17" from="B0B1" to="D2E2.80.00" type="passenger"/>
    <trip id="285" depart="91.28" from="B2B3" to="left3A3.80.00" type="passenger"/>
    <trip id="286" depart="91.67" from="left4A4" to="C4C3" type="passenger"/>
    <trip id="287" depart="91.90" from="A3B3.80.00" to="bottom0A0.80.00" type="passenger"/>
    <trip id="288" depart="92.11" from="right2E2.80.00" to="A4A3" type="passenger"/>
    <trip id="289" depart="92.21" from="B4A4.80.00" to="A4B4" type="passenger"/>
    <trip id="290" depart="92.42" from="D2D3" to="A1left1" type="passenger"/>
    <trip id="291" depart="92.74" from="left0A0" to="right1E1.80.00" type="passenger"/>
    <trip id="292" depart="92.86" from="E1D1" to="E3E2.80.00" type="passenger"/>
    <trip id="293" depart="93.24" from="D2D1" to="D4top3" type="passenger"/>
    <trip id="294" depart="93.28" from="right2E2" to="right0E0.80.00" type="passenger"/>
    <trip id="295" depart="93.43" from="C2C1.80.00" to="B1B2.80.00" type="passenger"/>
    <trip id="296" depart="93.58" from="A1B1" to="B1A1" type="passenger"/>
    <trip id="297" depart="93.66" from="B0B1" to="A0bottom0" type="passenger"/>
    <trip id="298" depart="93.71" from="left4A4" to="B0A0.80.00" type="passenger"/>
    <trip id="299" depart="94.57" from="C4D4" to="B0A0.80.00" type="passenger"/>
    <trip id="300" depart="94.58" from="C2C3.80.00" to="B4top1" type="passenger"/>
    <trip id="301" depart="94.62" from="A3A4" to="B0B1" type="passenger"/>
    <trip id="302" depart="95.21" from="D0E0.80.00" to="A0left0" type="passenger"/>
    <trip id="303" depart="95.38" from="E0D0.80.00" to="D0E0" type="passenger"/>
    <trip id="304" depart="95.41" from="C0C1" to="C1D1.80.00" type="passenger"/>
    <trip id="305" depart="95.82" from="A2A3" to="B0C0" type="passenger"/>
    <trip id="306" depart="95.84" from="B3C3.80.00" to="B1B0.80.00" type="passenger"/>
    <trip id="307" depart="95.87" from="C4C3" to="D0C0" type="passenger"/>
    <trip id="308" depart="96.03" from="A4B4" to="D1C1" type="passenger"/>
    <trip id="309" depart="96.03" from="A3A4" to="B4C4" type="passenger"/>
    <trip id="310" depart="96.05" from="C4C3.80.00" to="D3D2.80.00" type="passenger"/>
    <trip id="311" depart="96.42" from="D0D1" to="E1D1" type="passenger"/>
    <trip id="312" depart="96.69" from="left1A1.80.00" to="A0bottom0" type="passenger"/>
    <trip id="313" depart="96.78" from="E1E0" to="D1E1" type="passenger"/>
    <trip id="314" depart="97.01" from="D1D2.80.00" to="D2E2.80.00" type="passenger"/>
    <trip id="315" depart="97.54" from="D0D1" to="C4B4" type="passenger"/>
    <trip id="316" depart="97.57" from="B3A3" to="A4B4" type="passenger"/>
    <trip id="317" depart="97.95" from="C0D0.80.00" to="C3C2" type="passenger"/>
    <trip id="318" depart="98.37" from="D1D2" to="C3B3.80.00" type="passenger"/>
    <trip id="319" depart="98.85" from="B0B1" to="C4D4.80.00" type="passenger"/>
    <trip id="320" depart="99.04" from="A4A3" to="D0C0.80.00" type="passenger"/>
    <trip id="321" depart="99.12" from="D1D0" to="D1D2.80.00" type="passenger"/>
    <trip id="322" depart="99.28" from="B3A3.80.00" to="A3B3.80.00" type="passenger"/>
    <trip id="323" depart="100.09" from="D3D2.80.00" to="A2A3.80.00" type="passenger"/>
    <trip id="324" depart="100.17" from="A3A2" to="A1B1" type="passenger"/>
    <trip id="325" depart="100.35" from="C3D3" to="A1A2.80.00" type="passenger"/>
    <trip id="326" depart="100.38" from="bottom3D0" to="C1C0" type="passenger"/>
    <trip id="327" depart="100.44" from="C1B1" to="C1B1.80.00" type="passenger"/>
    <trip id="328" depart="100.59" from="top3D4" to="E0right0" type="passenger"/>
    <trip id="329" depart="100.67" from="E2E1" to="C4D4" type="passenger"/>
    <trip id="330" depart="101.00" from="E2D2.80.00" to="D4E4" type="passenger"/>
    <trip id="331" depart="101.01" from="D3C3.80.00" to="C0bottom2" type="passenger"/>
    <trip id="332" depart="101.70" from="right1E1.80.00" to="D1C1.80.00" type="passenger"/>
    <trip id="333" depart="101.84" from="B3C3.80.00" to="E1D1" type="passenger"/>
    <trip id="334" depart="102.06" from="D3C3" to="B4C4" type="passenger"/>
    <trip id="335" depart="102.22" from="E3E4.80.00" to="C2B2.80.00" type="passenger"/>
    <trip id="336" depart="102.33" from="B3C3" to="A2A3" type="passenger"/>
    <trip id="337" depart="102.56" from="B1C1.80.00" to="B3C3" type="passenger"/>
    <trip id="338" depart="103.33" from="C1D1.80.00" to="B2A2.80.00" type="passenger"/>
    <trip id="339" depart="103.45" from="D2D3" to="B2C2.80.00" type="passenger"/>
    <trip id="340" depart="103.76" from="D3C3.80.00" to="E2E3.80.00" type="passenger"/>
    <trip id="341" depart="104.42" from="A0B0" to="C3C2" type="passenger"/>
    <trip id="342" depart="104.76" from="B3C3.80.00" to="B1C1.80.00" type="passenger"/>
    <trip id="343" depart="105.00" from="D3D2" to="right3E3.80.00" type="passenger"/>
    <trip id="344" depart="105.54" from="A0A1.80.00" to="A1A0.80.00" type="passenger"/>
    <trip id="345" depart="105.74" from="C2D2" to="A0A1.80.00" type="passenger"/>
    <trip id="346" depart="105.94" from="C3D3.80.00" to="A2B2.80.00" type="passenger"/>
    <trip id="347" depart="105.94" from="B3A3.80.00" to="D3D2.80.00" type="passenger"/>
    <trip id="348" depart="106.03" from="top1B4.80.00" to="bottom0A0.80.00" type="passenger"/>
    <trip id="349" depart="106.61" from="E2D2.80.00" to="B4B3.80.00" type="passenger"/>
    <trip id="350" depart="106.97" from="C3C2.80.00" to="C2C1" type="passenger"/>
    <trip id="351" depart="107.00" from="B2B1" to="D4C4" type="passenger"/>
    <trip id="352" depart="107.36" from="E1E0.80.00" to="C4B4.80.00" type="passenger"/>
    <trip id="353" depart="107.68" from="D3D2.80.00" to="A1left1" type="passenger"/>