<?xml version="1.0" encoding="UTF-8"?>

<!-- generated on 2023-02-12 18:46:39.958040 by randomTrips.py UNKNOWN
<configuration>
    <begin value="0"/>
    <end value="900"/>
    <insertion-rate value="12500.0"/>
    <net-file value="/home/franky3er/Documents/code/HieraGLight/scenarios/grid/5x5-150m/train/33-scenario/network.net.xml"/>
    <random value="True"/>
    <random-depart value="True"/>
    <route-file value="/home/franky3er/Documents/code/HieraGLight/scenarios/grid/5x5-150m/train/33-scenario/routes.rou.xml"/>
    <seed value="33"/>
    <output-trip-file value="/home/franky3er/Documents/code/HieraGLight/scenarios/grid/5x5-150m/train/33-scenario/trips.trips.xml"/>
    <vehicle-class value="passenger"/>
</configuration>
-->

<routes xmlns:xsi="http://www.w3.org/2001/XMLSchema-instance" xsi:noNamespaceSchemaLocation="http://sumo.dlr.de/xsd/routes_file.xsd">
    <vType id="passenger" vClass="passenger"/>
    <trip id="0" depart="0.07" from="right3E3" to="C0B0" type="passenger"/>
    <trip id="1" depart="0.75" from="E1E2.80.00" to="A1B1" type="passenger"/>
    <trip id="2" depart="1.40" from="C2C1" to="C3D3" type="passenger"/>
    <trip id="3" depart="1.65" from="B4C4" to="E1E2" type="passenger"/>
    <trip id="4" depart="1.68" from="C2B2" to="B1C1" type="passenger"/>
    <trip id="5" depart="1.82" from="right3E3.80.00" to="D3E3" type="passenger"/>
    <trip id="6" depart="1.91" from="E2E1" to="C4D4" type="passenger"/>
    <trip id="7" depart="2.48" from="left3A3" to="E2E3.80.00" type="passenger"/>
    <trip id="8" depart="2.71" from="E4D4" to="E2E3" type="passenger"/>
    <trip id="9" depart="2.73" from="left4A4.80.00" to="E4right4" type="passenger"/>
    <trip id="10" depart="2.78" from="A1A2" to="B0A0" type="passenger"/>
    <trip id="11" depart="2.81" from="C4B4" to="E4E3.80.00" type="passenger"/>
    <trip id="12" depart="3.14" from="B4B3" to="A2A1" type="passenger"/>
    <trip id="13" depart="3.18" from="right2E2.80.00" to="B0B1.80.00" type="passenger"/>
    <trip id="14" depart="3.59" from="D1D0.80.00" to="B1B0.80.00" type="passenger"/>
    <trip id="15" depart="3.85" from="D2C2" to="E0bottom4" type="passenger"/>
    <trip id="16" depart="4.44" from="right0E0" to="C2D2.80.00" type="passenger"/>
    <trip id="17" depart="4.86" from="E2D2.80.00" to="B3B4.80.00" type="passenger"/>
    <trip id="18" depart="5.11" from="B1B0.80.00" to="D2D1" type="passenger"/>
    <trip id="19" depart="5.21" from="A1A0.80.00" to="C1B1" type="passenger"/>
    <trip id="20" depart="5.48" from="A3A2.80.00" to="bottom2C0.80.00" type="passenger"/>
    <trip id="21" depart="5.51" from="E3E2" to="D0C0" type="passenger"/>
    <trip id="22" depart="5.54" from="C2B2.80.00" to="E3D3" type="passenger"/>
    <trip id="23" depart="5.94" from="E2E1.80.00" to="top2C4.80.00" type="passenger"/>
    <trip id="24" depart="6.09" from="E3E4" to="D2C2.80.00" type="passenger"/>
    <trip id="25" depart="6.13" from="B3C3" to="left4A4.80.00" type="passenger"/>
    <trip id="26" depart="6.46" from="D1D0" to="B1B0" type="passenger"/>
    <trip id="27" depart="6.98" from="bottom1B0" to="E4E3" type="passenger"/>
    <trip id="28" depart="7.29" from="D3C3" to="B1B0.80.00" type="passenger"/>
    <trip id="29" depart="7.44" from="B1A1.80.00" to="D0D1.80.00" type="passenger"/>
    <trip id="30" depart="9.28" from="D0D1.80.00" to="C3C2" type="passenger"/>
    <trip id="31" depart="9.29" from="D1C1.80.00" to="A3left3" type="passenger"/>
    <trip id="32" depart="9.30" from="E1E0" to="top2C4.80.00" type="passenger"/>
    <trip id="33" depart="9.31" from="right0E0.80.00" to="left4A4.80.00" type="passenger"/>
    <trip id="34" depart="9.33" from="C1D1" to="right0E0.80.00" type="passenger"/>
    <trip id="35" depart="9.54" from="E0D0" to="A4top0" type="passenger"/>
    <trip id="36" depart="9.64" from="bottom3D0" to="bottom4E0.80.00" type="passenger"/>
    <trip id="37" depart="9.76" from="C3C4.80.00" to="D1C1.80.00" type="passenger"/>
    <trip id="38" depart="9.78" from="A2A1.80.00" to="B0A0" type="passenger"/>
    <trip id="39" depart="10.04" from="top1B4.80.00" to="C0D0.80.00" type="passenger"/>
    <trip id="40" depart="10.22" from="A1A2.80.00" to="D1D2" type="passenger"/>
    <trip id="41" depart="10.62" from="C1D1" to="A2A1.80.00" type="passenger"/>
    <trip id="42" depart="11.28" from="B1B2.80.00" to="A3B3" type="passenger"/>
    <trip id="43" depart="11.39" from="D2C2.80.00" to="A3A4" type="passenger"/>
    <trip id="44" depart="11.49" from="C3C4" to="B2B1.80.00" type="passenger"/>
    <trip id="45" depart="11.75" from="A0A1" to="C3C4.80.00" type="passenger"/>
    <trip id="46" depart="11.80" from="A3A4.80.00" to="B1B0.80.00" type="passenger"/>
    <trip id="47" depart="12.22" from="E2E1" to="B0A0" type="passenger"/>
    <trip id="48" depart="12.48" from="B4A4.80.00" to="C3B3" type="passenger"/>
    <trip id="49" depart="12.54" from="C0D0.80.00" to="D1E1" type="passenger"/>
    <trip id="50" depart="12.78" from="D0D1" to="right2E2.80.00" type="passenger"/>
    <trip id="51" depart="13.57" from="left4A4.80.00" to="E0right0" type="passenger"/>
    <trip id="52" depart="13.77" from="D2D1.80.00" to="D0D1" type="passenger"/>
    <trip id="53" depart="13.96" from="B2B3" to="D2E2.80.00" type="passenger"/>
    <trip id="54" depart="14.01" from="A4A3.80.00" to="D2D3" type="passenger"/>
    <trip id="55" depart="14.16" from="B1A1.80.00" to="D1C1" type="passenger"/>
    <trip id="56" depart="14.18" from="left3A3.80.00" to="E0E1" type="passenger"/>
    <trip id="57" depart="14.35" from="E3D3" to="C3C4.80.00" type="passenger"/>
    <trip id="58" depart="14.60" from="D3E3.80.00" to="D0E0" type="passenger"/>
    <trip id="59" depart="15.17" from="left1A1.80.00" to="D0E0.80.00" type="passenger"/>
    <trip id="60" depart="15.22" from="bottom0A0.80.00" to="A0left0" type="passenger"/>
    <trip id="61" depart="15.26" from="D2E2" to="C4B4" type="passenger"/>
    <trip id="62" depart="15.53" from="A1A2.80.00" to="B0A0" type="passenger"/>
    <trip id="63" depart="15.58" from="B2A2" to="bottom1B0.80.00" type="passenger"/>
    <trip id="64" depart="15.70" from="D3D2" to="E3D3" type="passenger"/>
    <trip id="65" depart="15.75" from="C1C0.80.00" to="B1B2" type="passenger"/>
    <trip id="66" depart="15.90" from="B2B1.80.00" to="E2D2" type="passenger"/>
    <trip id="67" depart="15.91" from="B0A0.80.00" to="A3A2.80.00" type="passenger"/>
    <trip id="68" depart="16.57" from="bottom2C0.80.00" to="C3C4.80.00" type="passenger"/>
    <trip id="69" depart="16.86" from="B2B1.80.00" to="right4E4.80.00" type="passenger"/>
    <trip id="70" depart="16.89" from="C2B2.80.00" to="A2A1" type="passenger"/>
    <trip id="71" depart="17.18" from="right0E0.80.00" to="D4C4.80.00" type="passenger"/>
    <trip id="72" depart="17.62" from="E1E0.80.00" to="B1A1.80.00" type="passenger"/>
    <trip id="73" depart="17.62" from="B3B2" to="C1D1" type="passenger"/>
    <trip id="74" depart="18.04" from="C3B3" to="A1B1.80.00" type="passenger"/>
    <trip id="75" depart="18.86" from="B2A2" to="E1D1.80.00" type="passenger"/>
    <trip id="76" depart="18.87" from="E3E4.80.00" to="D4C4.80.00" type="passenger"/>
    <trip id="77" depart="19.04" from="A3A4" to="C4D4.80.00" type="passenger"/>
    <trip id="78" depart="19.05" from="D4D3" to="A4B4" type="passenger"/>
    <trip id="79" depart="19.82" from="right3E3" to="E1E2.80.00" type="passenger"/>
    <trip id="80" depart="19.95" from="C4B4" to="B2A2" type="passenger"/>
    <trip id="81" depart="19.97" from="top0A4.80.00" to="A4top0" type="passenger"/>
    <trip id="82" depart="20.05" from="D0E0" to="B0A0" type="passenger"/>
    <trip id="83" depart="20.86" from="A3A2.80.00" to="C1D1.80.00" type="passenger"/>
    <trip id="84" depart="21.72" from="right1E1.80.00" to="left1A1.80.00" type="passenger"/>
    <trip id="85" depart="22.58" from="C0D0" to="D4D3" type="passenger"/>
    <trip id="86" depart="22.60" from="B1C1" to="D3D2.80.00" type="passenger"/>
    <trip id="87" depart="22.72" from="left2A2" to="A0A1.80.00" type="passenger"/>
    <trip id="88" depart="23.03" from="B3B4.80.00" to="C4B4.80.00" type="passenger"/>
    <trip id="89" depart="23.17" from="A1A0.80.00" to="E2E3" type="passenger"/>
    <trip id="90" depart="23.69" from="left4A4.80.00" to="D2E2.80.00" type="passenger"/>
    <trip id="91" depart="23.73" from="C2B2" to="A1A2" type="passenger"/>
    <trip id="92" depart="23.78" from="bottom0A0" to="D3D2.80.00" type="passenger"/>
    <trip id="93" depart="24.14" from="E2E3.80.00" to="C3C2" type="passenger"/>
    <trip id="94" depart="24.31" from="E2E3.80.00" to="A4left4" type="passenger"/>
    <trip id="95" depart="24.32" from="left4A4" to="D0E0" type="passenger"/>
    <trip id="96" depart="24.58" from="B2A2" to="D3E3.80.00" type="passenger"/>
    <trip id="97" depart="24.75" from="A2A1.80.00" to="E1right1" type="passenger"/>
    <trip id="98" depart="24.99" from="C3C2" to="D3D4.80.00" type="passenger"/>
    <trip id="99" depart="25.85" from="A3B3.80.00" to="E1right1" type="passenger"/>
    <trip id="100" depart="26.78" from="bottom0A0.80.00" to="C1D1" type="passenger"/>
    <trip id="101" depart="27.14" from="D4E4" to="E0E1.80.00" type="passenger"/>
    <trip id="102" depart="28.52" from="E1E0.80.00" to="B3B4.80.00" type="passenger"/>
    <trip id="103" depart="28.73" from="E4E3.80.00" to="E4D4.80.00" type="passenger"/>
    <trip id="104" depart="28.88" from="A2A3.80.00" to="B2C2" type="passenger"/>
    <trip id="105" depart="28.89" from="C1C0" to="C0D0.80.00" type="passenger"/>
    <trip id="106" depart="29.10" from="left3A3.80.00" to="D0C0.80.00" type="passenger"/>
    <trip id="107" depart="29.33" from="B3C3" to="E0E1.80.00" type="passenger"/>
    <trip id="108" depart="29.53" from="A3A4" to="A0left0" type="passenger"/>
    <trip id="109" depart="29.63" from="D4E4.80.00" to="top1B4.80.00" type="passenger"/>
    <trip id="110" depart="30.58" from="E3E4.80.00" to="E0D0" type="passenger"/>
    <trip id="111" depart="30.79" from="bottom3D0.80.00" to="B2B3.80.00" type="passenger"/>
    <trip id="112" depart="30.82" from="E4D4.80.00" to="B2A2.80.00" type="passenger"/>
    <trip id="113" depart="30.98" from="D3E3.80.00" to="A3A2" type="passenger"/>
    <trip id="114" depart="31.87" from="A1B1.80.00" to="B3C3.80.00" type="passenger"/>
    <trip id="115" depart="32.46" from="B4B3" to="E3E4.80.00" type="passenger"/>
    <trip id="116" depart="32.90" from="D1C1" to="C0B0.80.00" type="passenger"/>
    <trip id="117" depart="33.18" from="C0C1.80.00" to="E4E3" type="passenger"/>
    <trip id="118" depart="33.21" from="A2A1" to="C1B1.80.00" type="passenger"/>
    <trip id="119" depart="33.22" from="C2D2" to="left0A0.80.00" type="passenger"/>
    <trip id="120" depart="33.61" from="top4E4.80.00" to="top3D4.80.00" type="passenger"/>
    <trip id="121" depart="33.63" from="A0B0" to="right0E0.80.00" type="passenger"/>
    <trip id="122" depart="33.73" from="C0B0.80.00" to="C3D3.80.00" type="passenger"/>
    <trip id="123" depart="33.78" from="A4A3.80.00" to="C0C1.80.00" type="passenger"/>
    <trip id="124" depart="35.14" from="C3D3.80.00" to="B3B4.80.00" type="passenger"/>
    <trip id="125" depart="35.75" from="A2A3" to="A2B2" type="passenger"/>
    <trip id="126" depart="36.00" from="B3A3" to="B1C1.80.00" type="passenger"/>
    <trip id="127" depart="36.04" from="A2A3.80.00" to="A3A2" type="passenger"/>
    <trip id="128" depart="36.26" from="E0D0.80.00" to="C1C0" type="passenger"/>
    <trip id="129" depart="36.32" from="B2B1.80.00" to="A1A0" type="passenger"/>
    <trip id="130" depart="36.43" from="B1B2" to="D2C2.80.00" type="passenger"/>
    <trip id="131" depart="36.78" from="B4C4.80.00" to="E2D2.80.00" type="passenger"/>
    <trip id="132" depart="37.06" from="B4C4.80.00" to="E0bottom4" type="passenger"/>
    <trip id="133" depart="37.38" from="A1B1.80.00" to="E0D0" type="passenger"/>
    <trip id="134" depart="37.58" from="E1D1" to="C3C2.80.00" type="passenger"/>
    <trip id="135" depart="37.67" from="B2C2" to="B3B4" type="passenger"/>
    <trip id="136" depart="37.72" from="B0A0" to="C4D4.80.00" type="passenger"/>
    <trip id="137" depart="37.83" from="bottom1B0.80.00" to="C3C2.80.00" type="passenger"/>
    <trip id="138" depart="38.18" from="top0A4.80.00" to="B4C4.80.00" type="passenger"/>
    <trip id="139" depart="38.51" from="bottom2C0" to="C0B0.80.00" type="passenger"/>
    <trip id="140" depart="38.78" from="D3D4.80.00" to="C2C1" type="passenger"/>
    <trip id="141" depart="39.02" from="A2B2" to="C1B1" type="passenger"/>
    <trip id="142" depart="39.24" from="A2A3" to="B3B4.80.00" type="passenger"/>
    <trip id="143" depart="39.53" from="D2D3.80.00" to="C0B0.80.00" type="passenger"/>
    <trip id="144" depart="39.92" from="left0A0" to="C3B3.80.00" type="passenger"/>
    <trip id="145" depart="39.96" from="E2D2" to="C4D4" type="passenger"/>
    <trip id="146" depart="40.03" from="B0A0.80.00" to="B2B3" type="passenger"/>
    <trip id="147" depart="40.40" from="right0E0.80.00" to="E2right2" type="passenger"/>
    <trip id="148" depart="40.42" from="A2A3" to="A4B4" type="passenger"/>
    <trip id="149" depart="40.62" from="B0A0" to="C1C0" type="passenger"/>
    <trip id="150" depart="40.66" from="C1C0.80.00" to="B0B1" type="passenger"/>
    <trip id="151" depart="40.83" from="C1D1" to="A3A2" type="passenger"/>
    <trip id="152" depart="41.50" from="A4B4" to="B0A0.80.00" type="passenger"/>
    <trip id="153" depart="42.34" from="E2D2.80.00" to="D0E0" type="passenger"/>
    <trip id="154" depart="42.39" from="D1E1.80.00" to="D2D3.80.00" type="passenger"/>
    <trip id="155" depart="42.78" from="A3A4" to="A3B3" type="passenger"/>
    <trip id="156" depart="42.86" from="left3A3.80.00" to="left4A4.80.00" type="passenger"/>
    <trip id="157" depart="43.38" from="E3D3" to="A0A1" type="passenger"/>
    <trip id="158" depart="43.76" from="B2A2.80.00" to="left1A1.80.00" type="passenger"/>
    <trip id="159" depart="44.03" from="A2A1" to="C4D4" type="passenger"/>
    <trip id="160" depart="44.66" from="C3B3.80.00" to="C4C3" type="passenger"/>
    <trip id="161" depart="45.73" from="D1E1.80.00" to="D2E2.80.00" type="passenger"/>
    <trip id="162" depart="45.74" from="D4E4" to="C1C0" type="passenger"/>
    <trip id="163" depart="45.82" from="C2D2" to="C0C1" type="passenger"/>
    <trip id="164" depart="45.86" from="E1D1" to="E1E0" type="passenger"/>
    <trip id="165" depart="45.92" from="B1C1.80.00" to="C2C3.80.00" type="passenger"/>
    <trip id="166" depart="46.56" from="C0D0" to="bottom1B0.80.00" type="passenger"/>
    <trip id="167" depart="46.87" from="C3D3.80.00" to="C1B1" type="passenger"/>
    <trip id="168" depart="46.88" from="C1B1.80.00" to="B2B3" type="passenger"/>
    <trip id="169" depart="47.11" from="bottom1B0.80.00" to="E2E1.80.00" type="passenger"/>
    <trip id="170" depart="47.38" from="left0A0" to="B0C0" type="passenger"/>
    <trip id="171" depart="47.50" from="D2D3" to="top0A4.80.00" type="passenger"/>
    <trip id="172" depart="47.86" from="B1A1" to="D3E3.80.00" type="passenger"/>
    <trip id="173" depart="48.00" from="E3E2.80.00" to="E0E1.80.00" type="passenger"/>
    <trip id="174" depart="48.45" from="B4C4.80.00" to="top3D4.80.00" type="passenger"/>
    <trip id="175" depart="48.52" from="left4A4" to="B2A2.80.00" type="passenger"/>
    <trip id="176" depart="48.53" from="E3E4" to="E0bottom4" type="passenger"/>
    <trip id="177" depart="48.75" from="D3D2.80.00" to="A0B0.80.00" type="passenger"/>
    <trip id="178" depart="49.50" from="top3D4" to="B0A0.80.00" type="passenger"/>
    <trip id="179" depart="49.94" from="B1A1.80.00" to="D1C1" type="passenger"/>
    <trip id="180" depart="49.95" from="B0C0.80.00" to="bottom2C0.80.00" type="passenger"/>
    <trip id="181" depart="50.15" from="A4A3" to="E0E1" type="passenger"/>
    <trip id="182" depart="50.28" from="D3D2.80.00" to="A2left2" type="passenger"/>
    <trip id="183" depart="50.87" from="B4A4" to="B0A0" type="passenger"/>
    <trip id="184" depart="51.29" from="A1A0" to="A3A2" type="passenger"/>
    <trip id="185" depart="51.74" from="D3E3" to="A3A2" type="passenger"/>
    <trip id="186" depart="52.03" from="C2B2" to="C2D2.80.00" type="passenger"/>
    <trip id="187" depart="52.50" from="B4A4" to="B1C1" type="passenger"/>
    <trip id="188" depart="52.91" from="C1C0.80.00" to="C4B4.80.00" type="passenger"/>
    <trip id="189" depart="53.04" from="E3D3" to="E0E1.80.00" type="passenger"/>
    <trip id="190" depart="53.05" from="E2E3" to="D1E1.80.00" type="passenger"/>
    <trip id="191" depart="53.11" from="C3C4" to="bottom4E0.80.00" type="passenger"/>
    <trip id="192" depart="54.09" from="E4E3.80.00" to="D4E4.80.00" type="passenger"/>
    <trip id="193" depart="54.25" from="left3A3.80.00" to="C3C4" type="passenger"/>
    <trip id="194" depart="55.07" from="A3B3" to="C0D0.80.00" type="passenger"/>
    <trip id="195" depart="55.29" from="C1D1.80.00" to="E2D2" type="passenger"/>
    <trip id="196" depart="55.99" from="E2D2" to="A4A3.80.00" type="passenger"/>
    <trip id="197" depart="56.29" from="D2D3.80.00" to="C2B2.80.00" type="passenger"/>
    <trip id="198" depart="56.30" from="D2D1.80.00" to="C4B4.80.00" type="passenger"/>
    <trip id="199" depart="56.39" from="bottom2C0.80.00" to="C0C1.80.00" type="passenger"/>
    <trip id="200" depart="56.44" from="C2C3" to="C1D1.80.00" type="passenger"/>
    <trip id="201" depart="57.01" from="C2D2" to="C0C1" type="passenger"/>
    <trip id="202" depart="57.07" from="E3E4.80.00" to="B0A0" type="passenger"/>
    <trip id="203" depart="57.36" from="right2E2.80.00" to="E3E4.80.00" type="passenger"/>
    <trip id="204" depart="57.46" from="C4D4" to="A2left2" type="passenger"/>
    <trip id="205" depart="57.98" from="A2A1" to="top4E4.80.00" type="passenger"/>
    <trip id="206" depart="58.05" from="C4C3.80.00" to="C3C4.80.00" type="passenger"/>
    <trip id="207" depart="58.35" from="E3E4" to="B3C3" type="passenger"/>
    <trip id="208" depart="58.57" from="B1B0.80.00" to="D4top3" type="passenger"/>
    <trip id="209" depart="58.59" from="E1D1.80.00" to="D2D3" type="passenger"/>
    <trip id="210" depart="58.69" from="A2A1.80.00" to="A3A4.80.00" type="passenger"/>
    <trip id="211" depart="59.14" from="D2D3.80.00" to="B3B4.80.00" type="passenger"/>
    <trip id="212" depart="59.21" from="D3E3" to="E3D3" type="passenger"/>
    <trip id="213" depart="59.51" from="E4E3" to="D4D3.80.00" type="passenger"/>
    <trip id="214" depart="59.90" from="D2D1.80.00" to="B1B0.80.00" type="passenger"/>
    <trip id="215" depart="60.23" from="bottom4E0" to="B3A3" type="passenger"/>
    <trip id="216" depart="60.46" from="bottom0A0" to="A3A2.80.00" type="passenger"/>
    <trip id="217" depart="60.46" from="right2E2" to="top4E4.80.00" type="passenger"/>
    <trip id="218" depart="60.78" from="C1B1" to="E4D4" type="passenger"/>
    <trip id="219" depart="61.34" from="C4D4" to="C1D1.80.00" type="passenger"/>
    <trip id="220" depart="61.53" from="A2B2.80.00" to="B2B1.80.00" type="passenger"/>
    <trip id="221" depart="61.66" from="E2E3.80.00" to="D1C1.80.00" type="passenger"/>
    <trip id="222" depart="61.70" from="E1E2.80.00" to="D4E4" type="passenger"/>
    <trip id="223" depart="61.75" from="D1D2" to="C3C4" type="passenger"/>
    <trip id="224" depart="61.99" from="B4C4" to="A2left2" type="passenger"/>
    <trip id="225" depart="62.20" from="A1A2" to="B3A3" type="passenger"/>
    <trip id="226" depart="62.28" from="D0C0.80.00" to="D2D3" type="passenger"/>
    <trip id="227" depart="62.30" from="E1D1" to="C0B0" type="passenger"/>
    <trip id="228" depart="62.59" from="B3B2" to="A4A3.80.00" type="passenger"/>
    <trip id="229" depart="62.94" from="E2D2.80.00" to="E2E1.80.00" type="passenger"/>
    <trip id="230" depart="62.97" from="E4E3" to="right2E2.80.00" type="passenger"/>
    <trip id="231" depart="63.09" from="left1A1.80.00" to="A1A0" type="passenger"/>
    <trip id="232" depart="63.22" from="E1D1" to="E1E2.80.00" type="passenger"/>
    <trip id="233" depart="63.29" from="A1A2.80.00" to="A0left0" type="passenger"/>
    <trip id="234" depart="63.70" from="B2C2.80.00" to="D4E4.80.00" type="passenger"/>
    <trip id="235" depart="64.33" from="C1C0" to="B3A3.80.00" type="passenger"/>
    <trip id="236" depart="64.68" from="B3C3" to="E2right2" type="passenger"/>
    <trip id="237" depart="65.04" from="right3E3" to="C3C2.80.00" type="passenger"/>
    <trip id="238" depart="65.06" from="bottom1B0" to="E2E3" type="passenger"/>
    <trip id="239" depart="65.28" from="B2B1.80.00" to="C0D0.80.00" type="passenger"/>
    <trip id="240" depart="65.53" from="A4A3.80.00" to="B0A0.80.00" type="passenger"/>
    <trip id="241" depart="66.44" from="C4D4" to="A2B2.80.00" type="passenger"/>
    <trip id="242" depart="66.82" from="left0A0" to="D3E3.80.00" type="passenger"/>
    <trip id="243" depart="66.88" from="B0C0.80.00" to="C2B2.80.00" type="passenger"/>
    <trip id="244" depart="67.00" from="E2E1" to="E4D4.80.00" type="passenger"/>
    <trip id="245" depart="67.71" from="top3D4.80.00" to="A4left4" type="passenger"/>
    <trip id="246" depart="68.34" from="D3D4" to="C3B3.80.00" type="passenger"/>
    <trip id="247" depart="68.40" from="B2C2.80.00" to="bottom3D0.80.00" type="passenger"/>
    <trip id="248" depart="68.49" from="A1A0" to="A3B3.80.00" type="passenger"/>
    <trip id="249" depart="68.98" from="E1E0" to="E2D2" type="passenger"/>
    <trip id="250" depart="69.38" from="C1D1" to="B0bottom1" type="passenger"/>
    <trip id="251" depart="69.47" from="left4A4.80.00" to="E3right3" type="passenger"/>
    <trip id="252" depart="69.75" from="B3A3" to="E3E4.80.00" type="passenger"/>
    <trip id="253" depart="69.76" from="C4D4" to="B3A3.80.00" type="passenger"/>
    <trip id="254" depart="69.90" from="C1C0" to="E2E1" type="passenger"/>
    <trip id="255" depart="70.27" from="E4D4" to="D4E4" type="passenger"/>
    <trip id="256" depart="70.60" from="top0A4.80.00" to="C0C1" type="passenger"/>
    <trip id="257" depart="70.86" from="D1C1.80.00" to="D1D2.80.00" type="passenger"/>
    <trip id="258" depart="70.93" from="E3E4.80.00" to="D4top3" type="passenger"/>
    <trip id="259" depart="71.28" from="top1B4" to="bottom0A0.80.00" type="passenger"/>
    <trip id="260" depart="71.33" from="A3A4.80.00" to="B3B4.80.00" type="passenger"/>
    <trip id="261" depart="71.51" from="E3D3" to="C1C0.80.00" type="passenger"/>
    <trip id="262" depart="71.51" from="B1B2.80.00" to="D1C1.80.00" type="passenger"/>
    <trip id="263" depart="71.58" from="top2C4.80.00" to="D4D3.80.00" type="passenger"/>
    <trip id="264" depart="71.70" from="A3A2.80.00" to="C4C3.80.00" type="passenger"/>
    <trip id="265" depart="72.14" from="D1C1" to="D0E0" type="passenger"/>
    <trip id="266" depart="72.15" from="E0E1" to="right1E1.80.00" type="passenger"/>
    <trip id="267" depart="72.38" from="B3B2.80.00" to="C3D3.80.00" type="passenger"/>
    <trip id="268" depart="72.39" from="left4A4" to="C0B0" type="passenger"/>
    <trip id="269" depart="72.91" from="A4B4.80.00" to="A1A2" type="passenger"/>
    <trip id="270" depart="73.06" from="D1C1.80.00" to="D0D1" type="passenger"/>
    <trip id="271" depart="73.19" from="D4D3.80.00" to="A2A3" type="passenger"/>
    <trip id="272" depart="73.24" from="B2B1.80.00" to="C0C1.80.00" type="passenger"/>
    <trip id="273" depart="74.20" from="A2B2" to="D1D2.80.00" type="passenger"/>
    <trip id="274" depart="74.20" from="bottom0A0.80.00" to="A1A2.80.00" type="passenger"/>
    <trip id="275" depart="75.26" from="E3D3.80.00" to="D1D2.80.00" type="passenger"/>
    <trip id="276" depart="76.06" from="left4A4" to="B0C0.80.00" type="passenger"/>
    <trip id="277" depart="76.15" from="B0A0.80.00" to="C0C1" type="passenger"/>
    <trip id="278" depart="76.20" from="bottom2C0.80.00" to="C1D1.80.00" type="passenger"/>
    <trip id="279" depart="76.60" from="D0C0.80.00" to="E2right2" type="passenger"/>
    <trip id="280" depart="77.96" from="D0D1" to="D0E0.80.00" type="passenger"/>
    <trip id="281" depart="78.05" from="D2D1.80.00" to="C0D0.80.00" type="passenger"/>
    <trip id="282" depart="78.65" from="E1E0" to="C4C3.80.00" type="passenger"/>
    <trip id="283" depart="78.99" from="bottom2C0.80.00" to="right4E4.80.00" type="passenger"/>
    <trip id="284" depart="79.06" from="B2B1" to="A0B0.80.00" type="passenger"/>
    <trip id="285" depart="79.40" from="E1E2.80.00" to="B1B0" type="passenger"/>
    <trip id="286" depart="79.57" from="B3B2" to="B1B0" type="passenger"/>
    <trip id="287" depart="80.15" from="D3E3" to="A3A2.80.00" type="passenger"/>
    <trip id="288" depart="80.22" from="right4E4.80.00" to="D0D1.80.00" type="passenger"/>
    <trip id="289" depart="80.80" from="right2E2" to="A2left2" type="passenger"/>
    <trip id="290" depart="81.12" from="D0D1" to="D3C3" type="passenger"/>
    <trip id="291" depart="81.29" from="B3B2.80.00" to="left1A1.80.00" type="passenger"/>
    <trip id="292" depart="82.05" from="B4B3.80.00" to="E4D4.80.00" type="passenger"/>
    <trip id="293" depart="82.92" from="E0D0" to="B4top1" type="passenger"/>
    <trip id="294" depart="83.40" from="B4B3" to="D2D3" type="passenger"/>
    <trip id="295" depart="83.63" from="A3A2" to="E1E2" type="passenger"/>
    <trip id="296" depart="84.26" from="E1E2" to="top1B4.80.00" type="passenger"/>
    <trip id="297" depart="84.64" from="C1C2" to="A4top0" type="passenger"/>
    <trip id="298" depart="84.94" from="B3A3.80.00" to="B2B1.80.00" type="passenger"/>
    <trip id="299" depart="85.69" from="C3D3.80.00" to="D3E3.80.00" type="passenger"/>
    <trip id="300" depart="85.74" from="D4D3" to="A0B0" type="passenger"/>
    <trip id="301" depart="86.48" from="E1E0.80.00" to="E1E2" type="passenger"/>
    <trip id="302" depart="86.76" from="A3A4" to="E0D0" type="passenger"/>
    <trip id="303" depart="86.87" from="right3E3.80.00" to="D3C3" type="passenger"/>
    <trip id="304" depart="87.06" from="left4A4" to="C3C2.80.00" type="passenger"/>
    <trip id="305" depart="87.50" from="bottom0A0.80.00" to="C4B4.80.00" type="passenger"/>
    <trip id="306" depart="87.56" from="D3D4.80.00" to="B1B0" type="passenger"/>
    <trip id="307" depart="89.16" from="B4C4" to="top3D4.80.00" type="passenger"/>
    <trip id="308" depart="89.38" from="A1A2.80.00" to="D2E2" type="passenger"/>
    <trip id="309" depart="89.54" from="D3C3" to="A2left2" type="passenger"/>
    <trip id="310" depart="89.59" from="top0A4.80.00" to="D0D1" type="passenger"/>
    <trip id="311" depart="90.63" from="bottom0A0.80.00" to="left0A0.80.00" type="passenger"/>
    <trip id="312" depart="90.90" from="D1C1" to="E0D0.80.00" type="passenger"/>
    <trip id="313" depart="91.38" from="top4E4.80.00" to="bottom3D0.80.00" type="passenger"/>
    <trip id="314" depart="91.48" from="E0E1" to="B0A0.80.00" type="passenger"/>
    <trip id="315" depart="91.65" from="A4A3" to="E3D3.80.00" type="passenger"/>
    <trip id="316" depart="91.78" from="B3B2.80.00" to="B4A4" type="passenger"/>
    <trip id="317" depart="91.93" from="bottom1B0" to="D0E0" type="passenger"/>
    <trip id="318" depart="92.26" from="C1B1" to="C1D1" type="passenger"/>
    <trip id="319" depart="92.26" from="B2A2" to="top4E4.80.00" type="passenger"/>
    <trip id="320" depart="92.39" from="A2A3.80.00" to="D2E2" type="passenger"/>
    <trip id="321" depart="92.47" from="left1A1.80.00" to="D3D2.80.00" type="passenger"/>
    <trip id="322" depart="92.50" from="D3E3.80.00" to="D0D1" type="passenger"/>
    <trip id="323" depart="92.86" from="right4E4" to="A2B2" type="passenger"/>
    <trip id="324" depart="93.06" from="B3C3.80.00" to="B3C3.80.00" type="passenger"/>
    <trip id="325" depart="93.10" from="C4C3.80.00" to="A3left3" type="passenger"/>
    <trip id="326" depart="93.51" from="A2B2.80.00" to="C4top2" type="passenger"/>
    <trip id="327" depart="93.71" from="E2D2" to="E0bottom4" type="passenger"/>
    <trip id="328" depart="93.90" from="A1A2.80.00" to="A1A0" type="passenger"/>
    <trip id="329" depart="94.42" from="top3D4" to="C0B0" type="passenger"/>
    <trip id="330" depart="94.44" from="bottom3D0.80.00" to="B4top1" type="passenger"/>
    <trip id="331" depart="95.17" from="right2E2.80.00" to="D1E1" type="passenger"/>
    <trip id="332" depart="95.58" from="B2C2" to="D2D3.80.00" type="passenger"/>
    <trip id="333" depart="95.78" from="D1D2" to="C0bottom2" type="passenger"/>
    <trip id="334" depart="96.32" from="C0D0.80.00" to="E2E1.80.00" type="passenger"/>
    <trip id="335" depart="96.50" from="C4D4" to="E1E2.80.00" type="passenger"/>
    <trip id="336" depart="97.39" from="C1B1.80.00" to="E4right4" type="passenger"/>
    <trip id="337" depart="97.54" from="D4C4" to="C0B0" type="passenger"/>
    <trip id="338" depart="97.56" from="E4D4.80.00" to="A3A4" type="passenger"/>
    <trip id="339" depart="97.62" from="D1E1" to="C3B3.80.00" type="passenger"/>
    <trip id="340" depart="98.05" from="D2C2.80.00" to="D3D2" type="passenger"/>
    <trip id="341" depart="98.16" from="C0D0.80.00" to="A0A1.80.00" type="passenger"/>
    <trip id="342" depart="98.94" from="E3E4.80.00" to="E2D2" type="passenger"/>
    <trip id="343" depart="99.02" from="top3D4" to="B4A4.80.00" type="passenger"/>
    <trip id="344" depart="99.02" from="C4D4.80.00" to="C0D0.80.00" type="passenger"/>
    <trip id="345" depart="99.30" from="A1A2.80.00" to="B0C0" type="passenger"/>
    <trip id="346" depart="99.31" from="top3D4" to="D4D3" type="passenger"/>
    <trip id="347" depart="100.05" from="top4E4" to="C2D2.80.00" type="passenger"/>
    <trip id="348" depart="100.14" from="A1B1" to="C3B3.80.00" type="passenger"/>
    <trip id="349" depart="100.18" from="A1A2.80.00" to="C4C3" type="passenger"/>
    <trip id="350" depart="100.27" from="B3C3" to="A2A3.80.00" type="passenger"/>
    <trip id="351" depart="100.44" from="B4A4" to="A1left1" type="passenger"/>
    <trip id="352" depart="100.50" from="D3D2" to="E0E1.80.00" type="passenger"/>