<?xml version="1.0" encoding="UTF-8"?>

<!-- generated on 2023-02-12 18:47:01.998626 by randomTrips.py UNKNOWN
<configuration>
    <begin value="0"/>
    <end value="900"/>
    <insertion-rate value="12500.0"/>
    <net-file value="/home/franky3er/Documents/code/HieraGLight/scenarios/grid/5x5-150m/train/71-scenario/network.net.xml"/>
    <random value="True"/>
    <random-depart value="True"/>
    <route-file value="/home/franky3er/Documents/code/HieraGLight/scenarios/grid/5x5-150m/train/71-scenario/routes.rou.xml"/>
    <seed value="71"/>
    <output-trip-file value="/home/franky3er/Documents/code/HieraGLight/scenarios/grid/5x5-150m/train/71-scenario/trips.trips.xml"/>
    <vehicle-class value="passenger"/>
</configuration>
-->

<routes xmlns:xsi="http://www.w3.org/2001/XMLSchema-instance" xsi:noNamespaceSchemaLocation="http://sumo.dlr.de/xsd/routes_file.xsd">
    <vType id="passenger" vClass="passenger"/>
    <trip id="0" depart="0.04" from="D3D2.80.00" to="A2A3.80.00" type="passenger"/>
    <trip id="1" depart="0.14" from="C1B1" to="C4D4.80.00" type="passenger"/>
    <trip id="2" depart="0.96" from="right2E2.80.00" to="B1A1" type="passenger"/>
    <trip id="3" depart="1.20" from="D0D1.80.00" to="C4top2" type="passenger"/>
    <trip id="4" depart="1.75" from="E4E3" to="C4top2" type="passenger"/>
    <trip id="5" depart="1.90" from="right3E3.80.00" to="B1C1.80.00" type="passenger"/>
    <trip id="6" depart="2.24" from="B1B0.80.00" to="C3B3.80.00" type="passenger"/>
    <trip id="7" depart="2.30" from="D4C4" to="A1A0.80.00" type="passenger"/>
    <trip id="8" depart="2.43" from="D1C1.80.00" to="E4right4" type="passenger"/>
    <trip id="9" depart="3.06" from="D3D2" to="B0B1" type="passenger"/>
    <trip id="10" depart="3.54" from="B2C2" to="D4E4" type="passenger"/>
    <trip id="11" depart="3.72" from="B3A3" to="B2C2.80.00" type="passenger"/>
    <trip id="12" depart="3.91" from="E3E4.80.00" to="B0C0.80.00" type="passenger"/>
    <trip id="13" depart="4.02" from="D2C2.80.00" to="bottom4E0.80.00" type="passenger"/>
    <trip id="14" depart="4.17" from="B2A2.80.00" to="D0D1" type="passenger"/>
    <trip id="15" depart="4.29" from="A4B4.80.00" to="E3E4.80.00" type="passenger"/>
    <trip id="16" depart="4.31" from="D0E0.80.00" to="B0A0.80.00" type="passenger"/>
    <trip id="17" depart="4.37" from="D0E0.80.00" to="D1D2" type="passenger"/>
    <trip id="18" depart="4.38" from="C3C2" to="D0C0" type="passenger"/>
    <trip id="19" depart="4.73" from="D2D1" to="B3B4.80.00" type="passenger"/>
    <trip id="20" depart="5.39" from="B2C2" to="left3A3.80.00" type="passenger"/>
    <trip id="21" depart="5.42" from="D1C1" to="right0E0.80.00" type="passenger"/>
    <trip id="22" depart="5.82" from="D2C2.80.00" to="E1D1.80.00" type="passenger"/>
    <trip id="23" depart="6.36" from="C4B4" to="D3D4.80.00" type="passenger"/>
    <trip id="24" depart="6.46" from="B3B2" to="B0C0" type="passenger"/>
    <trip id="25" depart="7.41" from="B3C3.80.00" to="D2E2" type="passenger"/>
    <trip id="26" depart="7.77" from="A3B3.80.00" to="C3C2" type="passenger"/>
    <trip id="27" depart="7.80" from="C3C4" to="D3D2" type="passenger"/>
    <trip id="28" depart="8.53" from="C1D1" to="left1A1.80.00" type="passenger"/>
    <trip id="29" depart="8.63" from="B3A3.80.00" to="B2B1" type="passenger"/>
    <trip id="30" depart="8.67" from="C1B1" to="B1C1.80.00" type="passenger"/>
    <trip id="31" depart="9.02" from="C2D2" to="E2E3.80.00" type="passenger"/>
    <trip id="32" depart="9.07" from="left3A3.80.00" to="E3E4" type="passenger"/>
    <trip id="33" depart="9.08" from="B4A4.80.00" to="C3B3" type="passenger"/>
    <trip id="34" depart="9.46" from="bottom3D0" to="right2E2.80.00" type="passenger"/>
    <trip id="35" depart="10.34" from="D1D2" to="D1C1.80.00" type="passenger"/>
    <trip id="36" depart="10.42" from="A2B2.80.00" to="B0A0.80.00" type="passenger"/>
    <trip id="37" depart="10.87" from="D1D0" to="B0A0.80.00" type="passenger"/>
    <trip id="38" depart="11.38" from="bottom4E0.80.00" to="E1right1" type="passenger"/>
    <trip id="39" depart="11.87" from="C1B1" to="E3D3.80.00" type="passenger"/>
    <trip id="40" depart="11.96" from="A1A0.80.00" to="A3A4" type="passenger"/>
    <trip id="41" depart="12.21" from="D1C1.80.00" to="C0D0.80.00" type="passenger"/>
    <trip id="42" depart="12.73" from="C0C1.80.00" to="E1E0.80.00" type="passenger"/>
    <trip id="43" depart="13.62" from="C0B0.80.00" to="C3C4.80.00" type="passenger"/>
    <trip id="44" depart="13.76" from="right2E2.80.00" to="E0D0" type="passenger"/>
    <trip id="45" depart="13.96" from="C3B3.80.00" to="B0C0.80.00" type="passenger"/>
    <trip id="46" depart="14.86" from="A3B3.80.00" to="D1D0.80.00" type="passenger"/>
    <trip id="47" depart="14.87" from="top0A4" to="D0E0.80.00" type="passenger"/>
    <trip id="48" depart="14.98" from="D1C1" to="C0B0" type="passenger"/>
    <trip id="49" depart="15.11" from="top0A4.80.00" to="A4A3" type="passenger"/>
    <trip id="50" depart="15.32" from="A2A1" to="D0E0" type="passenger"/>
    <trip id="51" depart="15.58" from="B2C2.80.00" to="top4E4.80.00" type="passenger"/>
    <trip id="52" depart="15.61" from="E2E3.80.00" to="E3right3" type="passenger"/>
    <trip id="53" depart="15.91" from="E2D2.80.00" to="C4top2" type="passenger"/>
    <trip id="54" depart="16.03" from="E0E1" to="A4A3.80.00" type="passenger"/>
    <trip id="55" depart="16.10" from="bottom3D0" to="left0A0.80.00" type="passenger"/>
    <trip id="56" depart="16.34" from="A1B1.80.00" to="A2A3.80.00" type="passenger"/>
    <trip id="57" depart="16.54" from="A3A2.80.00" to="D4D3" type="passenger"/>
    <trip id="58" depart="16.58" from="C2B2" to="B3B4" type="passenger"/>
    <trip id="59" depart="16.60" from="C2D2" to="A2B2.80.00" type="passenger"/>
    <trip id="60" depart="16.61" from="D3C3" to="D3E3" type="passenger"/>
    <trip id="61" depart="16.62" from="B4C4.80.00" to="B2B3.80.00" type="passenger"/>
    <trip id="62" depart="16.76" from="C0D0.80.00" to="C1B1.80.00" type="passenger"/>
    <trip id="63" depart="17.10" from="right4E4" to="A1A0" type="passenger"/>
    <trip id="64" depart="17.26" from="D0C0.80.00" to="top2C4.80.00" type="passenger"/>
    <trip id="65" depart="17.54" from="D2D1" to="C0D0.80.00" type="passenger"/>
    <trip id="66" depart="18.53" from="E1D1.80.00" to="B2A2.80.00" type="passenger"/>
    <trip id="67" depart="18.67" from="A3A2.80.00" to="E1right1" type="passenger"/>
    <trip id="68" depart="18.67" from="D0D1.80.00" to="E2right2" type="passenger"/>
    <trip id="69" depart="18.67" from="A1B1.80.00" to="A4B4" type="passenger"/>
    <trip id="70" depart="19.28" from="D4E4.80.00" to="D2D3" type="passenger"/>
    <trip id="71" depart="19.34" from="bottom2C0" to="C3B3" type="passenger"/>
    <trip id="72" depart="19.54" from="A2A3.80.00" to="A0bottom0" type="passenger"/>
    <trip id="73" depart="19.57" from="D4E4" to="A3B3" type="passenger"/>
    <trip id="74" depart="19.72" from="B3B2.80.00" to="E0E1" type="passenger"/>
    <trip id="75" depart="20.29" from="B3A3" to="E2D2.80.00" type="passenger"/>
    <trip id="76" depart="20.82" from="D4C4.80.00" to="A4A3" type="passenger"/>
    <trip id="77" depart="21.02" from="B1B0.80.00" to="E1E2" type="passenger"/>
    <trip id="78" depart="21.78" from="B1B0.80.00" to="left1A1.80.00" type="passenger"/>
    <trip id="79" depart="23.20" from="D4D3.80.00" to="C1D1" type="passenger"/>
    <trip id="80" depart="24.25" from="C2C3.80.00" to="C1D1" type="passenger"/>
    <trip id="81" depart="24.57" from="C4D4" to="C4top2" type="passenger"/>
    <trip id="82" depart="24.70" from="left1A1" to="A3A2.80.00" type="passenger"/>
    <trip id="83" depart="24.93" from="E1E2" to="D3D2.80.00" type="passenger"/>
    <trip id="84" depart="24.96" from="B4C4" to="D4E4.80.00" type="passenger"/>
    <trip id="85" depart="25.38" from="C2D2.80.00" to="D0E0.80.00" type="passenger"/>
    <trip id="86" depart="25.85" from="left3A3.80.00" to="C1C0" type="passenger"/>
    <trip id="87" depart="26.00" from="C2C3.80.00" to="E2D2" type="passenger"/>
    <trip id="88" depart="26.17" from="D3C3.80.00" to="E2D2" type="passenger"/>
    <trip id="89" depart="26.66" from="E1E0.80.00" to="B4A4.80.00" type="passenger"/>
    <trip id="90" depart="26.92" from="C3D3" to="B3B2" type="passenger"/>
    <trip id="91" depart="27.09" from="A3A2.80.00" to="B4top1" type="passenger"/>
    <trip id="92" depart="27.30" from="E4E3.80.00" to="A3A2" type="passenger"/>
    <trip id="93" depart="27.92" from="D3C3.80.00" to="B4B3.80.00" type="passenger"/>
    <trip id="94" depart="29.02" from="C4B4" to="B0bottom1" type="passenger"/>
    <trip id="95" depart="29.14" from="C0C1" to="right1E1.80.00" type="passenger"/>
    <trip id="96" depart="29.38" from="top3D4" to="C2D2" type="passenger"/>
    <trip id="97" depart="29.43" from="E1D1.80.00" to="D1D2" type="passenger"/>
    <trip id="98" depart="29.46" from="B1B0" to="B3B2" type="passenger"/>
    <trip id="99" depart="29.59" from="D1C1.80.00" to="C3B3.80.00" type="passenger"/>
    <trip id="100" depart="29.80" from="C0D0.80.00" to="D3D2.80.00" type="passenger"/>
    <trip id="101" depart="29.81" from="D4D3" to="A3B3" type="passenger"/>
    <trip id="102" depart="29.90" from="C1D1.80.00" to="D1C1" type="passenger"/>
    <trip id="103" depart="30.25" from="B3C3.80.00" to="B0B1.80.00" type="passenger"/>
    <trip id="104" depart="31.09" from="B1B2.80.00" to="C3D3.80.00" type="passenger"/>
    <trip id="105" depart="31.75" from="A3A4.80.00" to="A3B3" type="passenger"/>
    <trip id="106" depart="32.17" from="B1A1.80.00" to="B1B0" type="passenger"/>
    <trip id="107" depart="32.30" from="B2A2.80.00" to="C3B3.80.00" type="passenger"/>
    <trip id="108" depart="33.33" from="B3B2" to="D3C3" type="passenger"/>
    <trip id="109" depart="33.38" from="bottom1B0" to="B0C0" type="passenger"/>
    <trip id="110" depart="33.83" from="E0D0" to="B1B2" type="passenger"/>
    <trip id="111" depart="34.42" from="right3E3.80.00" to="C1C0.80.00" type="passenger"/>
    <trip id="112" depart="35.35" from="bottom0A0" to="A0A1.80.00" type="passenger"/>
    <trip id="113" depart="35.74" from="right1E1.80.00" to="B0C0" type="passenger"/>
    <trip id="114" depart="36.38" from="E2E1" to="A3A2" type="passenger"/>
    <trip id="115" depart="36.57" from="E2E1" to="A1B1.80.00" type="passenger"/>
    <trip id="116" depart="37.29" from="C1D1" to="D2D3.80.00" type="passenger"/>
    <trip id="117" depart="37.66" from="E4D4" to="E1E0" type="passenger"/>
    <trip id="118" depart="37.82" from="bottom4E0.80.00" to="right4E4.80.00" type="passenger"/>
    <trip id="119" depart="37.88" from="C4D4" to="A2A3" type="passenger"/>
    <trip id="120" depart="38.31" from="A4A3.80.00" to="C2D2.80.00" type="passenger"/>
    <trip id="121" depart="38.31" from="E3D3" to="D2E2.80.00" type="passenger"/>
    <trip id="122" depart="38.57" from="D4D3" to="C2D2.80.00" type="passenger"/>
    <trip id="123" depart="39.20" from="right0E0.80.00" to="D0C0.80.00" type="passenger"/>
    <trip id="124" depart="39.25" from="D1D2" to="D1C1" type="passenger"/>
    <trip id="125" depart="39.64" from="C2C3" to="right3E3.80.00" type="passenger"/>
    <trip id="126" depart="39.75" from="D1D2.80.00" to="D4D3" type="passenger"/>
    <trip id="127" depart="40.04" from="B3A3" to="D0C0.80.00" type="passenger"/>
    <trip id="128" depart="40.41" from="E3D3" to="A3A2" type="passenger"/>
    <trip id="129" depart="40.42" from="A1B1.80.00" to="C2B2.80.00" type="passenger"/>
    <trip id="130" depart="41.11" from="D1E1.80.00" to="E0E1" type="passenger"/>
    <trip id="131" depart="41.47" from="B3C3.80.00" to="D1C1" type="passenger"/>
    <trip id="132" depart="41.52" from="C2B2.80.00" to="B1A1.80.00" type="passenger"/>
    <trip id="133" depart="42.14" from="B2B3" to="C1C0" type="passenger"/>
    <trip id="134" depart="42.29" from="left4A4" to="A4top0" type="passenger"/>
    <trip id="135" depart="42.70" from="C4B4" to="E3E2" type="passenger"/>
    <trip id="136" depart="42.90" from="left1A1" to="A2left2" type="passenger"/>
    <trip id="137" depart="43.10" from="B0B1.80.00" to="B1B2" type="passenger"/>
    <trip id="138" depart="43.21" from="D4E4" to="top4E4.80.00" type="passenger"/>
    <trip id="139" depart="43.24" from="B0B1" to="C4top2" type="passenger"/>
    <trip id="140" depart="43.60" from="B1B0.80.00" to="E3right3" type="passenger"/>
    <trip id="141" depart="43.95" from="C4D4.80.00" to="C2D2.80.00" type="passenger"/>
    <trip id="142" depart="44.01" from="E0D0" to="B1B2.80.00" type="passenger"/>
    <trip id="143" depart="44.04" from="E0E1.80.00" to="E1E2.80.00" type="passenger"/>
    <trip id="144" depart="44.30" from="D4E4.80.00" to="A3A4" type="passenger"/>
    <trip id="145" depart="44.62" from="D1E1" to="left0A0.80.00" type="passenger"/>
    <trip id="146" depart="44.73" from="E4E3" to="E2D2.80.00" type="passenger"/>
    <trip id="147" depart="45.14" from="B1B0.80.00" to="top1B4.80.00" type="passenger"/>
    <trip id="148" depart="45.47" from="C1C2.80.00" to="C2C1" type="passenger"/>
    <trip id="149" depart="45.63" from="B1A1" to="D0E0" type="passenger"/>
    <trip id="150" depart="45.67" from="B3A3.80.00" to="B4B3.80.00" type="passenger"/>
    <trip id="151" depart="45.78" from="B3B4.80.00" to="A0B0.80.00" type="passenger"/>
    <trip id="152" depart="46.07" from="D1E1" to="B4B3.80.00" type="passenger"/>
    <trip id="153" depart="46.19" from="E0D0" to="B3A3" type="passenger"/>
    <trip id="154" depart="46.24" from="left3A3.80.00" to="C0C1" type="passenger"/>
    <trip id="155" depart="46.53" from="E3E2.80.00" to="D4C4.80.00" type="passenger"/>
    <trip id="156" depart="46.55" from="C2B2.80.00" to="C3C2" type="passenger"/>
    <trip id="157" depart="46.82" from="top0A4" to="left3A3.80.00" type="passenger"/>
    <trip id="158" depart="46.85" from="C3D3.80.00" to="A3A2" type="passenger"/>
    <trip id="159" depart="47.01" from="D2D1.80.00" to="right4E4.80.00" type="passenger"/>
    <trip id="160" depart="47.27" from="D3C3" to="D3D4.80.00" type="passenger"/>
    <trip id="161" depart="47.48" from="A1A0.80.00" to="E4right4" type="passenger"/>
    <trip id="162" depart="47.81" from="C3D3" to="A2A3.80.00" type="passenger"/>
    <trip id="163" depart="47.86" from="A4B4" to="B4A4" type="passenger"/>
    <trip id="164" depart="48.46" from="E0E1.80.00" to="B3C3.80.00" type="passenger"/>
    <trip id="165" depart="48.98" from="left4A4" to="D1E1" type="passenger"/>
    <trip id="166" depart="49.08" from="E2D2" to="D2D3.80.00" type="passenger"/>
    <trip id="167" depart="49.32" from="D1D2" to="E1E2.80.00" type="passenger"/>
    <trip id="168" depart="49.42" from="D3E3" to="B3C3.80.00" type="passenger"/>
    <trip id="169" depart="50.03" from="right2E2.80.00" to="right4E4.80.00" type="passenger"/>
    <trip id="170" depart="50.12" from="A4B4.80.00" to="C0B0" type="passenger"/>
    <trip id="171" depart="50.33" from="D1D0" to="B3B2" type="passenger"/>
    <trip id="172" depart="50.62" from="C1C0.80.00" to="D1D0.80.00" type="passenger"/>
    <trip id="173" depart="50.78" from="D2D1" to="left0A0.80.00" type="passenger"/>
    <trip id="174" depart="50.85" from="right3E3" to="E0E1" type="passenger"/>
    <trip id="175" depart="51.17" from="D3E3.80.00" to="D0D1" type="passenger"/>
    <trip id="176" depart="51.28" from="E1D1" to="B4B3" type="passenger"/>
    <trip id="177" depart="51.34" from="B3C3.80.00" to="A2A3.80.00" type="passenger"/>
    <trip id="178" depart="51.44" from="top1B4.80.00" to="E2D2" type="passenger"/>
    <trip id="179" depart="51.57" from="B2B3" to="C0C1.80.00" type="passenger"/>
    <trip id="180" depart="51.78" from="E2D2.80.00" to="A1B1.80.00" type="passenger"/>
    <trip id="181" depart="52.01" from="B0B1" to="A3B3.80.00" type="passenger"/>
    <trip id="182" depart="52.04" from="left0A0.80.00" to="A0A1" type="passenger"/>
    <trip id="183" depart="52.21" from="C4B4" to="right2E2.80.00" type="passenger"/>
    <trip id="184" depart="52.92" from="A3A4.80.00" to="D4D3" type="passenger"/>
    <trip id="185" depart="53.10" from="C2B2.80.00" to="B3C3.80.00" type="passenger"/>
    <trip id="186" depart="53.23" from="A2A1.80.00" to="E3E2" type="passenger"/>
    <trip id="187" depart="53.81" from="B4A4.80.00" to="D0D1.80.00" type="passenger"/>
    <trip id="188" depart="54.12" from="A2B2" to="E1E2.80.00" type="passenger"/>
    <trip id="189" depart="54.13" from="right1E1" to="D3C3" type="passenger"/>
    <trip id="190" depart="54.34" from="B2B3.80.00" to="left0A0.80.00" type="passenger"/>
    <trip id="191" depart="55.12" from="C3C4" to="C0C1.80.00" type="passenger"/>
    <trip id="192" depart="55.62" from="A1A0.80.00" to="B1A1" type="passenger"/>
    <trip id="193" depart="55.94" from="C1D1.80.00" to="D2C2.80.00" type="passenger"/>
    <trip id="194" depart="56.45" from="left3A3.80.00" to="C4D4.80.00" type="passenger"/>
    <trip id="195" depart="57.06" from="right0E0" to="D0E0" type="passenger"/>
    <trip id="196" depart="57.39" from="E2D2.80.00" to="C3C2.80.00" type="passenger"/>
    <trip id="197" depart="57.45" from="E4D4" to="left4A4.80.00" type="passenger"/>
    <trip id="198" depart="57.87" from="D1E1.80.00" to="D1D2.80.00" type="passenger"/>
    <trip id="199" depart="57.89" from="C2C3.80.00" to="D3E3.80.00" type="passenger"/>
    <trip id="200" depart="58.56" from="D3E3" to="A0B0.80.00" type="passenger"/>
    <trip id="201" depart="58.82" from="D2C2" to="B1A1.80.00" type="passenger"/>
    <trip id="202" depart="58.98" from="C1C2" to="A4left4" type="passenger"/>
    <trip id="203" depart="59.77" from="E1E0.80.00" to="E4top4" type="passenger"/>
    <trip id="204" depart="60.26" from="bottom4E0.80.00" to="B0C0.80.00" type="passenger"/>
    <trip id="205" depart="60.26" from="right2E2.80.00" to="C0B0" type="passenger"/>
    <trip id="206" depart="60.68" from="D0E0" to="bottom0A0.80.00" type="passenger"/>
    <trip id="207" depart="61.68" from="B4B3" to="D1D0" type="passenger"/>
    <trip id="208" depart="61.88" from="C0D0.80.00" to="A2left2" type="passenger"/>
    <trip id="209" depart="62.43" from="C3B3.80.00" to="E3E4.80.00" type="passenger"/>
    <trip id="210" depart="62.54" from="C2D2" to="top1B4.80.00" type="passenger"/>
    <trip id="211" depart="62.78" from="D4E4" to="D1E1" type="passenger"/>
    <trip id="212" depart="62.94" from="A0B0" to="C0C1" type="passenger"/>
    <trip id="213" depart="63.02" from="A2A3" to="A1left1" type="passenger"/>
    <trip id="214" depart="63.18" from="B1A1.80.00" to="C4B4" type="passenger"/>
    <trip id="215" depart="63.21" from="top4E4" to="C2C3.80.00" type="passenger"/>
    <trip id="216" depart="63.26" from="A3A4.80.00" to="E2E1" type="passenger"/>
    <trip id="217" depart="63.38" from="E4D4.80.00" to="E3D3" type="passenger"/>
    <trip id="218" depart="63.49" from="C4D4" to="A0bottom0" type="passenger"/>
    <trip id="219" depart="63.62" from="left3A3.80.00" to="D1D0.80.00" type="passenger"/>
    <trip id="220" depart="63.65" from="D3E3.80.00" to="C2D2.80.00" type="passenger"/>
    <trip id="221" depart="63.78" from="A2B2" to="C4B4.80.00" type="passenger"/>
    <trip id="222" depart="63.83" from="A3B3" to="E1E2.80.00" type="passenger"/>
    <trip id="223" depart="64.27" from="C0C1.80.00" to="B4top1" type="passenger"/>
    <trip id="224" depart="64.59" from="A2A3" to="A4A3.80.00" type="passenger"/>
    <trip id="225" depart="64.74" from="B0B1" to="B4B3.80.00" type="passenger"/>
    <trip id="226" depart="64.86" from="C3D3" to="C1C0.80.00" type="passenger"/>
    <trip id="227" depart="64.91" from="E2D2" to="D2D3" type="passenger"/>
    <trip id="228" depart="65.25" from="E2D2" to="B0bottom1" type="passenger"/>
    <trip id="229" depart="65.26" from="top3D4.80.00" to="D2C2.80.00" type="passenger"/>
    <trip id="230" depart="66.00" from="right2E2" to="E3E2.80.00" type="passenger"/>
    <trip id="231" depart="66.37" from="B3B2.80.00" to="B4C4" type="passenger"/>
    <trip id="232" depart="66.49" from="C0C1.80.00" to="A3A2" type="passenger"/>
    <trip id="233" depart="66.50" from="D4D3.80.00" to="A3B3" type="passenger"/>
    <trip id="234" depart="66.54" from="C2B2" to="A2B2" type="passenger"/>
    <trip id="235" depart="66.97" from="C4D4" to="B4B3" type="passenger"/>
    <trip id="236" depart="67.18" from="D4C4.80.00" to="E4top4" type="passenger"/>
    <trip id="237" depart="67.27" from="C1C2" to="B2B3.80.00" type="passenger"/>
    <trip id="238" depart="67.54" from="D1D2.80.00" to="D3E3" type="passenger"/>
    <trip id="239" depart="67.68" from="C3D3.80.00" to="B1B2" type="passenger"/>
    <trip id="240" depart="67.72" from="E2E1" to="top0A4.80.00" type="passenger"/>
    <trip id="241" depart="68.34" from="D3E3" to="B3B2" type="passenger"/>
    <trip id="242" depart="68.85" from="C0C1" to="left0A0.80.00" type="passenger"/>
    <trip id="243" depart="68.90" from="A4B4.80.00" to="E4D4" type="passenger"/>
    <trip id="244" depart="69.18" from="D4C4" to="B0C0" type="passenger"/>
    <trip id="245" depart="69.23" from="B2B1" to="A2B2" type="passenger"/>
    <trip id="246" depart="69.88" from="A4A3" to="D4E4" type="passenger"/>
    <trip id="247" depart="70.09" from="E4D4" to="bottom2C0.80.00" type="passenger"/>
    <trip id="248" depart="70.17" from="bottom4E0" to="C3C4" type="passenger"/>
    <trip id="249" depart="70.54" from="D4C4" to="D3D2" type="passenger"/>
    <trip id="250" depart="70.92" from="E2D2.80.00" to="bottom2C0.80.00" type="passenger"/>
    <trip id="251" depart="71.02" from="B1B2" to="C3C2" type="passenger"/>
    <trip id="252" depart="71.59" from="A3A2.80.00" to="D3C3" type="passenger"/>
    <trip id="253" depart="71.62" from="right2E2" to="A2A3.80.00" type="passenger"/>
    <trip id="254" depart="71.65" from="D0C0" to="E1E2" type="passenger"/>
    <trip id="255" depart="71.83" from="B1B2" to="B0C0.80.00" type="passenger"/>
    <trip id="256" depart="72.27" from="A3B3" to="A0bottom0" type="passenger"/>
    <trip id="257" depart="73.40" from="E3E4" to="D2D1.80.00" type="passenger"/>
    <trip id="258" depart="73.44" from="B2C2.80.00" to="C1C0" type="passenger"/>
    <trip id="259" depart="74.03" from="C2D2" to="D4D3" type="passenger"/>
    <trip id="260" depart="74.04" from="B4A4" to="C3D3.80.00" type="passenger"/>
    <trip id="261" depart="74.52" from="B1A1.80.00" to="A1A0.80.00" type="passenger"/>
    <trip id="262" depart="74.80" from="bottom4E0.80.00" to="E2D2.80.00" type="passenger"/>
    <trip id="263" depart="75.38" from="A0A1.80.00" to="A3A2.80.00" type="passenger"/>
    <trip id="264" depart="75.56" from="E3E4.80.00" to="E3E2.80.00" type="passenger"/>
    <trip id="265" depart="76.42" from="B1A1.80.00" to="D3D2" type="passenger"/>
    <trip id="266" depart="76.52" from="A2A3" to="B2C2" type="passenger"/>
    <trip id="267" depart="76.53" from="C3C2.80.00" to="B0A0.80.00" type="passenger"/>
    <trip id="268" depart="77.10" from="A1A0" to="B4B3" type="passenger"/>
    <trip id="269" depart="77.52" from="D0D1.80.00" to="E1E0.80.00" type="passenger"/>
    <trip id="270" depart="78.53" from="A4B4" to="D3C3.80.00" type="passenger"/>
    <trip id="271" depart="78.70" from="left1A1.80.00" to="B1C1" type="passenger"/>
    <trip id="272" depart="78.95" from="B4B3.80.00" to="D2D3.80.00" type="passenger"/>
    <trip id="273" depart="79.33" from="bottom0A0" to="E3E2.80.00" type="passenger"/>
    <trip id="274" depart="79.45" from="D2D1" to="D3C3.80.00" type="passenger"/>
    <trip id="275" depart="79.70" from="D1E1" to="B2B3.80.00" type="passenger"/>
    <trip id="276" depart="79.79" from="B2B3" to="right4E4.80.00" type="passenger"/>
    <trip id="277" depart="79.81" from="top3D4.80.00" to="D1D2.80.00" type="passenger"/>
    <trip id="278" depart="79.86" from="B3C3" to="E4E3" type="passenger"/>
    <trip id="279" depart="80.30" from="E1E0" to="E4top4" type="passenger"/>
    <trip id="280" depart="80.47" from="C3C2" to="A0left0" type="passenger"/>
    <trip id="281" depart="80.54" from="bottom0A0.80.00" to="E0D0.80.00" type="passenger"/>
    <trip id="282" depart="80.71" from="E3E2.80.00" to="A1A0" type="passenger"/>
    <trip id="283" depart="80.78" from="C0D0.80.00" to="E3D3.80.00" type="passenger"/>
    <trip id="284" depart="81.65" from="B2B1.80.00" to="C2D2" type="passenger"/>
    <trip id="285" depart="82.11" from="right0E0.80.00" to="A4A3" type="passenger"/>
    <trip id="286" depart="82.18" from="A0A1.80.00" to="B4B3" type="passenger"/>
    <trip id="287" depart="82.61" from="B0C0" to="E1E0.80.00" type="passenger"/>
    <trip id="288" depart="82.92" from="B4A4.80.00" to="C2C1.80.00" type="passenger"/>
    <trip id="289" depart="83.02" from="B0C0" to="C4B4" type="passenger"/>
    <trip id="290" depart="83.14" from="left2A2" to="A0B0.80.00" type="passenger"/>
    <trip id="291" depart="83.28" from="A0A1" to="top4E4.80.00" type="passenger"/>
    <trip id="292" depart="84.04" from="B3C3.80.00" to="C3B3.80.00" type="passenger"/>
    <trip id="293" depart="84.09" from="right2E2.80.00" to="A4A3.80.00" type="passenger"/>
    <trip id="294" depart="84.54" from="A1A0" to="E2D2.80.00" type="passenger"/>
    <trip id="295" depart="84.68" from="B1B2.80.00" to="right4E4.80.00" type="passenger"/>
    <trip id="296" depart="84.92" from="E2E1" to="B3C3.80.00" type="passenger"/>
    <trip id="297" depart="85.22" from="B3A3.80.00" to="E4E3" type="passenger"/>
    <trip id="298" depart="85.23" from="top1B4" to="E4E3" type="passenger"/>
    <trip id="299" depart="85.40" from="B2B1" to="D0D1" type="passenger"/>
    <trip id="300" depart="86.00" from="A1A2.80.00" to="D2D3.80.00" type="passenger"/>
    <trip id="301" depart="86.31" from="D1D2" to="B3A3.80.00" type="passenger"/>
    <trip id="302" depart="86.51" from="D1E1.80.00" to="B0bottom1" type="passenger"/>
    <trip id="303" depart="87.06" from="E2E3.80.00" to="right3E3.80.00" type="passenger"/>
    <trip id="304" depart="87.09" from="E2D2.80.00" to="C3D3.80.00" type="passenger"/>
    <trip id="305" depart="87.44" from="B3B2.80.00" to="C4C3" type="passenger"/>
    <trip id="306" depart="88.10" from="C4C3" to="E0E1" type="passenger"/>
    <trip id="307" depart="88.19" from="D2D3" to="E3D3" type="passenger"/>
    <trip id="308" depart="88.20" from="B4C4" to="A4left4" type="passenger"/>
    <trip id="309" depart="88.28" from="C4C3" to="E3E4.80.00" type="passenger"/>
    <trip id="310" depart="88.34" from="E3D3" to="top0A4.80.00" type="passenger"/>
    <trip id="311" depart="89.04" from="A3A2" to="C2B2.80.00" type="passenger"/>
    <trip id="312" depart="89.58" from="C3C2" to="A0left0" type="passenger"/>
    <trip id="313" depart="90.61" from="C2D2.80.00" to="C2C1.80.00" type="passenger"/>
    <trip id="314" depart="90.95" from="A4A3" to="E1E0" type="passenger"/>
    <trip id="315" depart="91.15" from="A1A0.80.00" to="D3D4" type="passenger"/>
    <trip id="316" depart="91.86" from="B0C0.80.00" to="A3A2" type="passenger"/>
    <trip id="317" depart="92.10" from="D1D2" to="A1B1" type="passenger"/>
    <trip id="318" depart="92.12" from="B1A1" to="B4C4.80.00" type="passenger"/>
    <trip id="319" depart="92.47" from="E4E3" to="C1C0.80.00" type="passenger"/>
    <trip id="320" depart="92.80" from="A0A1.80.00" to="B1B2.80.00" type="passenger"/>
    <trip id="321" depart="92.93" from="B4A4.80.00" to="A3A4" type="passenger"/>
    <trip id="322" depart="93.51" from="left1A1.80.00" to="E3E2.80.00" type="passenger"/>
    <trip id="323" depart="93.62" from="C3D3.80.00" to="top1B4.80.00" type="passenger"/>
    <trip id="324" depart="94.22" from="E4E3" to="B4C4" type="passenger"/>
    <trip id="325" depart="95.08" from="E0D0.80.00" to="C4D4.80.00" type="passenger"/>
    <trip id="326" depart="95.14" from="D3E3.80.00" to="A0B0" type="passenger"/>
    <trip id="327" depart="95.14" from="A2A1" to="B0B1.80.00" type="passenger"/>
    <trip id="328" depart="95.76" from="B3B2" to="D3E3" type="passenger"/>
    <trip id="329" depart="96.75" from="E2E3.80.00" to="B1C1.80.00" type="passenger"/>
    <trip id="330" depart="97.76" from="left0A0" to="B0A0" type="passenger"/>
    <trip id="331" depart="98.44" from="C0C1.80.00" to="C4C3.80.00" type="passenger"/>
    <trip id="332" depart="98.46" from="C3B3" to="B2C2" type="passenger"/>
    <trip id="333" depart="99.77" from="left2A2" to="B1C1" type="passenger"/>
    <trip id="334" depart="99.86" from="A0B0" to="D4C4.80.00" type="passenger"/>
    <trip id="335" depart="99.90" from="top4E4.80.00" to="E1E0" type="passenger"/>
    <trip id="336" depart="100.41" from="B4B3" to="D3C3" type="passenger"/>
    <trip id="337" depart="100.50" from="E1E2.80.00" to="E0right0" type="passenger"/>
    <trip id="338" depart="101.52" from="C0C1" to="B4C4" type="passenger"/>
    <trip id="339" depart="101.61" from="E2D2" to="A0B0.80.00" type="passenger"/>
    <trip id="340" depart="101.70" from="E3E2.80.00" to="A2left2" type="passenger"/>
    <trip id="341" depart="101.99" from="A1A2.80.00" to="bottom2C0.80.00" type="passenger"/>
    <trip id="342" depart="102.02" from="bottom1B0" to="D0D1.80.00" type="passenger"/>
    <trip id="343" depart="102.10" from="E1E0" to="E2E1" type="passenger"/>
    <trip id="344" depart="102.20" from="E4D4.80.00" to="E1D1.80.00" type="passenger"/>
    <trip id="345" depart="102.57" from="B2B1" to="A2B2.80.00" type="passenger"/>
    <trip id="346" depart="102.84" from="C1B1.80.00" to="D0D1.80.00" type="passenger"/>
    <trip id="347" depart="103.40" from="A1A2.80.00" to="A1A0.80.00" type="passenger"/>
    <trip id="348" depart="103.74" from="D1C1.80.00" to="A1B1.80.00" type="passenger"/>
    <trip id="349" depart="104.20" from="bottom2C0.80.00" to="C1B1.80.00" type="passenger"/>
    <trip id="350" depart="104.38" from="B3A3.80.00" to="right4E4.80.00" type="passenger"/>
    <trip id="351" depart="104.70" from="A4A3.80.00" to="D4C4.80.00" type="passenger"/>
    <trip id="352" depart="105.39" from="D2D1" to="D1C1" type="passenger"/>
    <trip id="353" depart="105.85" from="bottom2C0" to="B3B4" type="passenger"/>