<?xml version="1.0" encoding="UTF-8"?>

<!-- generated on 2023-04-26 16:56:38.304229 by randomTrips.py UNKNOWN
<configuration>
    <begin value="0"/>
    <end value="900"/>
    <insertion-rate value="8000.0"/>
    <net-file value="/home/franky3er/Documents/code/HieraGLight/scenarios/grid/1x1-500m/train/10-scenario/network.net.xml"/>
    <random value="True"/>
    <random-depart value="True"/>
    <route-file value="/home/franky3er/Documents/code/HieraGLight/scenarios/grid/1x1-500m/train/10-scenario/routes.rou.xml"/>
    <seed value="10"/>
    <output-trip-file value="/home/franky3er/Documents/code/HieraGLight/scenarios/grid/1x1-500m/train/10-scenario/trips.trips.xml"/>
    <vehicle-class value="passenger"/>
</configuration>
-->

<!-- generated on 2023-04-26 16:56:38 by Eclipse SUMO duarouter Version 1.16.0
<configuration xmlns:xsi="http://www.w3.org/2001/XMLSchema-instance" xsi:noNamespaceSchemaLocation="http://sumo.dlr.de/xsd/duarouterConfiguration.xsd">

    <input>
        <net-file value="/home/franky3er/Documents/code/HieraGLight/scenarios/grid/1x1-500m/train/10-scenario/network.net.xml"/>
        <route-files value="/home/franky3er/Documents/code/HieraGLight/scenarios/grid/1x1-500m/train/10-scenario/trips.trips.xml"/>
    </input>

    <output>
        <output-file value="/home/franky3er/Documents/code/HieraGLight/scenarios/grid/1x1-500m/train/10-scenario/routes.rou.xml"/>
        <alternatives-output value="NUL"/>
    </output>

    <time>
        <begin value="0"/>
        <end value="900"/>
    </time>

    <report>
        <no-warnings value="true"/>
        <ignore-errors value="true"/>
        <no-step-log value="true"/>
    </report>

</configuration>
-->

<routes xmlns:xsi="http://www.w3.org/2001/XMLSchema-instance" xsi:noNamespaceSchemaLocation="http://sumo.dlr.de/xsd/routes_file.xsd">
    <vType id="passenger" vClass="passenger"/>
    <vehicle id="0" type="passenger" depart="0.45">
        <route edges="top0A0.250.00 A0left0"/>
    </vehicle>
    <vehicle id="7" type="passenger" depart="3.55">
        <route edges="top0A0 top0A0.250.00 A0bottom0"/>
    </vehicle>
    <vehicle id="8" type="passenger" depart="4.00">
        <route edges="bottom0A0 bottom0A0.250.00 A0right0"/>
    </vehicle>
    <vehicle id="10" type="passenger" depart="4.55">
        <route edges="right0A0.250.00 A0top0"/>
    </vehicle>
    <vehicle id="11" type="passenger" depart="4.85">
        <route edges="left0A0.250.00 A0bottom0"/>
    </vehicle>
    <vehicle id="12" type="passenger" depart="5.30">
        <route edges="left0A0.250.00 A0bottom0"/>
    </vehicle>
    <vehicle id="18" type="passenger" depart="7.20">
        <route edges="top0A0 top0A0.250.00"/>
    </vehicle>
    <vehicle id="19" type="passenger" depart="8.00">
        <route edges="bottom0A0 bottom0A0.250.00 A0left0"/>
    </vehicle>
    <vehicle id="20" type="passenger" depart="8.80">
        <route edges="right0A0 right0A0.250.00"/>
    </vehicle>
    <vehicle id="21" type="passenger" depart="9.05">
        <route edges="bottom0A0.250.00"/>
    </vehicle>
    <vehicle id="22" type="passenger" depart="9.15">
        <route edges="bottom0A0 bottom0A0.250.00"/>
    </vehicle>
    <vehicle id="24" type="passenger" depart="9.30">
        <route edges="left0A0.250.00 A0bottom0"/>
    </vehicle>
    <vehicle id="25" type="passenger" depart="9.60">
        <route edges="bottom0A0.250.00 A0right0"/>
    </vehicle>
    <vehicle id="26" type="passenger" depart="9.60">
        <route edges="right0A0 right0A0.250.00 A0bottom0"/>
    </vehicle>
    <vehicle id="29" type="passenger" depart="10.55">
        <route edges="left0A0 left0A0.250.00"/>
    </vehicle>
    <vehicle id="30" type="passenger" depart="10.85">
        <route edges="right0A0.250.00 A0top0"/>
    </vehicle>
    <vehicle id="33" type="passenger" depart="12.80">
        <route edges="right0A0 right0A0.250.00 A0left0"/>
    </vehicle>
    <vehicle id="37" type="passenger" depart="16.95">
        <route edges="left0A0.250.00 A0top0"/>
    </vehicle>
    <vehicle id="38" type="passenger" depart="17.30">
        <route edges="bottom0A0 bottom0A0.250.00 A0left0"/>
    </vehicle>
    <vehicle id="39" type="passenger" depart="17.30">
        <route edges="right0A0.250.00 A0bottom0"/>
    </vehicle>
    <vehicle id="40" type="passenger" depart="17.45">
        <route edges="right0A0 right0A0.250.00"/>
    </vehicle>
    <vehicle id="41" type="passenger" depart="17.70">
        <route edges="right0A0 right0A0.250.00 A0top0"/>
    </vehicle>
    <vehicle id="42" type="passenger" depart="17.70">
        <route edges="top0A0 top0A0.250.00 A0left0"/>
    </vehicle>
    <vehicle id="46" type="passenger" depart="19.85">
        <route edges="top0A0.250.00 A0right0"/>
    </vehicle>
    <vehicle id="48" type="passenger" depart="21.25">
        <route edges="bottom0A0.250.00"/>
    </vehicle>
    <vehicle id="49" type="passenger" depart="21.40">
        <route edges="top0A0.250.00 A0right0"/>
    </vehicle>
    <vehicle id="50" type="passenger" depart="22.35">
        <route edges="right0A0.250.00 A0bottom0"/>
    </vehicle>
    <vehicle id="51" type="passenger" depart="22.40">
        <route edges="right0A0.250.00"/>
    </vehicle>
    <vehicle id="57" type="passenger" depart="26.05">
        <route edges="bottom0A0.250.00 A0right0"/>
    </vehicle>
    <vehicle id="58" type="passenger" depart="26.30">
        <route edges="bottom0A0.250.00 A0right0"/>
    </vehicle>
    <vehicle id="62" type="passenger" depart="26.75">
        <route edges="right0A0.250.00 A0top0"/>
    </vehicle>
    <vehicle id="63" type="passenger" depart="27.60">
        <route edges="left0A0 left0A0.250.00 A0bottom0"/>
    </vehicle>
    <vehicle id="64" type="passenger" depart="27.95">
        <route edges="bottom0A0 bottom0A0.250.00 A0top0"/>
    </vehicle>
    <vehicle id="65" type="passenger" depart="28.45">
        <route edges="top0A0.250.00"/>
    </vehicle>
    <vehicle id="67" type="passenger" depart="29.05">
        <route edges="left0A0 left0A0.250.00"/>
    </vehicle>
    <vehicle id="70" type="passenger" depart="31.45">
        <route edges="left0A0.250.00 A0right0"/>
    </vehicle>
    <vehicle id="71" type="passenger" depart="31.55">
        <route edges="bottom0A0.250.00 A0left0"/>
    </vehicle>
    <vehicle id="73" type="passenger" depart="34.30">
        <route edges="top0A0 top0A0.250.00 A0bottom0"/>
    </vehicle>
    <vehicle id="74" type="passenger" depart="34.60">
        <route edges="bottom0A0 bottom0A0.250.00 A0left0"/>
    </vehicle>
    <vehicle id="81" type="passenger" depart="38.60">
        <route edges="left0A0.250.00"/>
    </vehicle>
    <vehicle id="82" type="passenger" depart="38.65">
        <route edges="left0A0.250.00 A0top0"/>
    </vehicle>
    <vehicle id="86" type="passenger" depart="39.40">
        <route edges="top0A0.250.00 A0left0"/>
    </vehicle>
    <vehicle id="87" type="passenger" depart="39.55">
        <route edges="top0A0 top0A0.250.00"/>
    </vehicle>
    <vehicle id="88" type="passenger" depart="40.40">
        <route edges="left0A0 left0A0.250.00 A0bottom0"/>
    </vehicle>
    <vehicle id="90" type="passenger" depart="41.05">
        <route edges="left0A0 left0A0.250.00 A0right0"/>
    </vehicle>
    <vehicle id="94" type="passenger" depart="42.45">
        <route edges="right0A0 right0A0.250.00 A0bottom0"/>
    </vehicle>
    <vehicle id="95" type="passenger" depart="42.55">
        <route edges="bottom0A0.250.00 A0right0"/>
    </vehicle>
    <vehicle id="99" type="passenger" depart="44.90">
        <route edges="left0A0 left0A0.250.00 A0bottom0"/>
    </vehicle>
    <vehicle id="101" type="passenger" depart="45.55">
        <route edges="bottom0A0 bottom0A0.250.00 A0right0"/>
    </vehicle>
    <vehicle id="102" type="passenger" depart="45.95">
        <route edges="left0A0 left0A0.250.00 A0bottom0"/>
    </vehicle>
    <vehicle id="103" type="passenger" depart="46.95">
        <route edges="bottom0A0 bottom0A0.250.00"/>
    </vehicle>
    <vehicle id="104" type="passenger" depart="47.10">
        <route edges="top0A0 top0A0.250.00"/>
    </vehicle>
    <vehicle id="105" type="passenger" depart="47.60">
        <route edges="left0A0.250.00 A0right0"/>
    </vehicle>
    <vehicle id="107" type="passenger" depart="48.95">
        <route edges="left0A0 left0A0.250.00 A0top0"/>
    </vehicle>
    <vehicle id="108" type="passenger" depart="49.20">
        <route edges="left0A0.250.00 A0bottom0"/>
    </vehicle>
    <vehicle id="110" type="passenger" depart="49.70">
        <route edges="bottom0A0.250.00"/>
    </vehicle>
    <vehicle id="112" type="passenger" depart="50.50">
        <route edges="bottom0A0.250.00"/>
    </vehicle>
    <vehicle id="115" type="passenger" depart="51.45">
        <route edges="top0A0.250.00 A0right0"/>
    </vehicle>
    <vehicle id="116" type="passenger" depart="52.05">
        <route edges="right0A0.250.00 A0top0"/>
    </vehicle>
    <vehicle id="117" type="passenger" depart="52.45">
        <route edges="top0A0.250.00 A0left0"/>
    </vehicle>
    <vehicle id="119" type="passenger" depart="53.65">
        <route edges="top0A0 top0A0.250.00"/>
    </vehicle>
    <vehicle id="121" type="passenger" depart="55.00">
        <route edges="left0A0.250.00 A0right0"/>
    </vehicle>
    <vehicle id="124" type="passenger" depart="56.05">
        <route edges="right0A0 right0A0.250.00 A0top0"/>
    </vehicle>
    <vehicle id="127" type="passenger" depart="58.20">
        <route edges="bottom0A0.250.00 A0left0"/>
    </vehicle>
    <vehicle id="128" type="passenger" depart="58.55">
        <route edges="right0A0.250.00"/>
    </vehicle>
    <vehicle id="129" type="passenger" depart="58.65">
        <route edges="right0A0.250.00"/>
    </vehicle>
    <vehicle id="130" type="passenger" depart="59.20">
        <route edges="right0A0.250.00 A0left0"/>
    </vehicle>
    <vehicle id="132" type="passenger" depart="61.25">
        <route edges="top0A0.250.00 A0right0"/>
    </vehicle>
    <vehicle id="134" type="passenger" depart="62.65">
        <route edges="bottom0A0 bottom0A0.250.00"/>
    </vehicle>
    <vehicle id="135" type="passenger" depart="62.65">
        <route edges="top0A0 top0A0.250.00 A0right0"/>
    </vehicle>
    <vehicle id="137" type="passenger" depart="63.15">
        <route edges="right0A0 right0A0.250.00 A0top0"/>
    </vehicle>
    <vehicle id="138" type="passenger" depart="63.95">
        <route edges="left0A0 left0A0.250.00 A0right0"/>
    </vehicle>
    <vehicle id="140" type="passenger" depart="64.25">
        <route edges="top0A0 top0A0.250.00 A0bottom0"/>
    </vehicle>
    <vehicle id="141" type="passenger" depart="64.60">
        <route edges="bottom0A0.250.00 A0left0"/>
    </vehicle>
    <vehicle id="142" type="passenger" depart="64.90">
        <route edges="right0A0.250.00 A0left0"/>
    </vehicle>
    <vehicle id="143" type="passenger" depart="65.05">
        <route edges="left0A0 left0A0.250.00 A0right0"/>
    </vehicle>
    <vehicle id="145" type="passenger" depart="65.70">
        <route edges="top0A0.250.00 A0right0"/>
    </vehicle>
    <vehicle id="146" type="passenger" depart="66.30">
        <route edges="right0A0 right0A0.250.00"/>
    </vehicle>
    <vehicle id="147" type="passenger" depart="66.85">
        <route edges="right0A0.250.00 A0left0"/>
    </vehicle>
    <vehicle id="148" type="passenger" depart="67.05">
        <route edges="bottom0A0 bottom0A0.250.00 A0right0"/>
    </vehicle>
    <vehicle id="149" type="passenger" depart="67.45">
        <route edges="left0A0.250.00 A0bottom0"/>
    </vehicle>
    <vehicle id="150" type="passenger" depart="68.40">
        <route edges="bottom0A0.250.00 A0left0"/>
    </vehicle>
    <vehicle id="152" type="passenger" depart="68.85">
        <route edges="bottom0A0 bottom0A0.250.00 A0left0"/>
    </vehicle>
    <vehicle id="153" type="passenger" depart="69.40">
        <route edges="top0A0.250.00 A0left0"/>
    </vehicle>
    <vehicle id="157" type="passenger" depart="70.85">
        <route edges="bottom0A0.250.00 A0top0"/>
    </vehicle>
    <vehicle id="160" type="passenger" depart="71.85">
        <route edges="top0A0.250.00 A0right0"/>
    </vehicle>
    <vehicle id="162" type="passenger" depart="72.10">
        <route edges="bottom0A0.250.00 A0right0"/>
    </vehicle>
    <vehicle id="163" type="passenger" depart="72.90">
        <route edges="bottom0A0 bottom0A0.250.00 A0top0"/>
    </vehicle>
    <vehicle id="165" type="passenger" depart="73.65">
        <route edges="left0A0 left0A0.250.00 A0bottom0"/>
    </vehicle>
    <vehicle id="166" type="passenger" depart="75.40">
        <route edges="top0A0.250.00 A0bottom0"/>
    </vehicle>
    <vehicle id="167" type="passenger" depart="75.75">
        <route edges="top0A0.250.00 A0left0"/>
    </vehicle>
    <vehicle id="168" type="passenger" depart="75.95">
        <route edges="bottom0A0 bottom0A0.250.00 A0right0"/>
    </vehicle>
    <vehicle id="176" type="passenger" depart="77.85">
        <route edges="top0A0.250.00 A0right0"/>
    </vehicle>
    <vehicle id="180" type="passenger" depart="78.60">
        <route edges="bottom0A0.250.00"/>
    </vehicle>
    <vehicle id="184" type="passenger" depart="79.55">
        <route edges="top0A0.250.00 A0left0"/>
    </vehicle>
    <vehicle id="186" type="passenger" depart="80.10">
        <route edges="left0A0 left0A0.250.00 A0top0"/>
    </vehicle>
    <vehicle id="188" type="passenger" depart="80.75">
        <route edges="bottom0A0.250.00 A0right0"/>
    </vehicle>
    <vehicle id="189" type="passenger" depart="81.10">
        <route edges="right0A0 right0A0.250.00 A0left0"/>
    </vehicle>
    <vehicle id="191" type="passenger" depart="81.45">
        <route edges="right0A0 right0A0.250.00 A0top0"/>
    </vehicle>
    <vehicle id="192" type="passenger" depart="82.45">
        <route edges="bottom0A0 bottom0A0.250.00 A0top0"/>
    </vehicle>
    <vehicle id="193" type="passenger" depart="83.20">
        <route edges="right0A0 right0A0.250.00 A0left0"/>
    </vehicle>
    <vehicle id="194" type="passenger" depart="83.35">
        <route edges="top0A0 top0A0.250.00 A0left0"/>
    </vehicle>
    <vehicle id="195" type="passenger" depart="83.65">
        <route edges="top0A0 top0A0.250.00"/>
    </vehicle>
    <vehicle id="196" type="passenger" depart="83.75">
        <route edges="right0A0 right0A0.250.00"/>
    </vehicle>
    <vehicle id="198" type="passenger" depart="84.85">
        <route edges="left0A0.250.00 A0bottom0"/>
    </vehicle>
    <vehicle id="201" type="passenger" depart="85.45">
        <route edges="right0A0 right0A0.250.00 A0bottom0"/>
    </vehicle>
    <vehicle id="203" type="passenger" depart="86.50">
        <route edges="bottom0A0.250.00 A0right0"/>
    </vehicle>
    <vehicle id="204" type="passenger" depart="86.60">
        <route edges="top0A0.250.00 A0bottom0"/>
    </vehicle>
    <vehicle id="210" type="passenger" depart="88.65">
        <route edges="bottom0A0.250.00 A0left0"/>
    </vehicle>
    <vehicle id="211" type="passenger" depart="88.80">
        <route edges="top0A0.250.00 A0left0"/>
    </vehicle>
    <vehicle id="213" type="passenger" depart="91.55">
        <route edges="left0A0.250.00"/>
    </vehicle>
    <vehicle id="214" type="passenger" depart="91.55">
        <route edges="top0A0 top0A0.250.00 A0left0"/>
    </vehicle>
    <vehicle id="215" type="passenger" depart="92.35">
        <route edges="left0A0 left0A0.250.00 A0right0"/>
    </vehicle>
    <vehicle id="218" type="passenger" depart="93.70">
        <route edges="left0A0.250.00 A0bottom0"/>
    </vehicle>
    <vehicle id="221" type="passenger" depart="94.75">
        <route edges="bottom0A0 bottom0A0.250.00"/>
    </vehicle>
    <vehicle id="222" type="passenger" depart="94.90">
        <route edges="bottom0A0 bottom0A0.250.00 A0top0"/>
    </vehicle>
    <vehicle id="225" type="passenger" depart="97.00">
        <route edges="left0A0 left0A0.250.00 A0bottom0"/>
    </vehicle>
    <vehicle id="226" type="passenger" depart="97.80">
        <route edges="left0A0 left0A0.250.00 A0top0"/>
    </vehicle>
    <vehicle id="233" type="passenger" depart="99.90">
        <route edges="left0A0.250.00 A0top0"/>
    </vehicle>
    <vehicle id="236" type="passenger" depart="101.70">
        <route edges="left0A0 left0A0.250.00 A0right0"/>
    </vehicle>
    <vehicle id="240" type="passenger" depart="103.40">
        <route edges="left0A0 left0A0.250.00 A0right0"/>
    </vehicle>
    <vehicle id="241" type="passenger" depart="104.45">
        <route edges="bottom0A0 bottom0A0.250.00 A0top0"/>
    </vehicle>
    <vehicle id="243" type="passenger" depart="106.80">
        <route edges="left0A0 left0A0.250.00 A0top0"/>
    </vehicle>
    <vehicle id="245" type="passenger" depart="106.90">
        <route edges="right0A0 right0A0.250.00 A0left0"/>
    </vehicle>
    <vehicle id="247" type="passenger" depart="108.50">
        <route edges="left0A0.250.00 A0right0"/>
    </vehicle>
    <vehicle id="248" type="passenger" depart="108.75">
        <route edges="left0A0.250.00 A0top0"/>
    </vehicle>
    <vehicle id="249" type="passenger" depart="109.05">
        <route edges="left0A0 left0A0.250.00 A0bottom0"/>
    </vehicle>
    <vehicle id="251" type="passenger" depart="111.40">
        <route edges="bottom0A0.250.00"/>
    </vehicle>
    <vehicle id="253" type="passenger" depart="111.85">
        <route edges="top0A0 top0A0.250.00 A0bottom0"/>
    </vehicle>
    <vehicle id="257" type="passenger" depart="113.50">
        <route edges="bottom0A0.250.00 A0right0"/>
    </vehicle>
    <vehicle id="259" type="passenger" depart="114.50">
        <route edges="left0A0 left0A0.250.00 A0top0"/>
    </vehicle>
    <vehicle id="260" type="passenger" depart="115.05">
        <route edges="top0A0 top0A0.250.00 A0left0"/>
    </vehicle>
    <vehicle id="264" type="passenger" depart="115.65">
        <route edges="top0A0 top0A0.250.00 A0right0"/>
    </vehicle>
    <vehicle id="265" type="passenger" depart="116.05">
        <route edges="bottom0A0 bottom0A0.250.00 A0top0"/>
    </vehicle>
    <vehicle id="266" type="passenger" depart="116.15">
        <route edges="right0A0 right0A0.250.00 A0bottom0"/>
    </vehicle>
    <vehicle id="268" type="passenger" depart="117.05">
        <route edges="right0A0 right0A0.250.00 A0left0"/>
    </vehicle>
    <vehicle id="270" type="passenger" depart="117.75">
        <route edges="left0A0 left0A0.250.00 A0bottom0"/>
    </vehicle>
    <vehicle id="271" type="passenger" depart="118.20">
        <route edges="right0A0 right0A0.250.00 A0left0"/>
    </vehicle>
    <vehicle id="272" type="passenger" depart="118.25">
        <route edges="bottom0A0 bottom0A0.250.00 A0left0"/>
    </vehicle>
    <vehicle id="273" type="passenger" depart="119.40">
        <route edges="bottom0A0.250.00 A0right0"/>
    </vehicle>
    <vehicle id="275" type="passenger" depart="120.25">
        <route edges="top0A0 top0A0.250.00"/>
    </vehicle>
    <vehicle id="280" type="passenger" depart="121.60">
        <route edges="left0A0.250.00 A0right0"/>
    </vehicle>
    <vehicle id="281" type="passenger" depart="122.45">
        <route edges="top0A0.250.00"/>
    </vehicle>
    <vehicle id="282" type="passenger" depart="123.40">
        <route edges="top0A0 top0A0.250.00"/>
    </vehicle>
    <vehicle id="283" type="passenger" depart="123.70">
        <route edges="right0A0.250.00 A0left0"/>
    </vehicle>
    <vehicle id="285" type="passenger" depart="126.50">
        <route edges="right0A0 right0A0.250.00 A0left0"/>
    </vehicle>
    <vehicle id="286" type="passenger" depart="126.90">
        <route edges="bottom0A0.250.00 A0right0"/>
    </vehicle>
    <vehicle id="288" type="passenger" depart="128.25">
        <route edges="bottom0A0.250.00 A0left0"/>
    </vehicle>
    <vehicle id="293" type="passenger" depart="130.70">
        <route edges="bottom0A0 bottom0A0.250.00"/>
    </vehicle>
    <vehicle id="298" type="passenger" depart="133.05">
        <route edges="left0A0.250.00"/>
    </vehicle>
    <vehicle id="300" type="passenger" depart="133.20">
        <route edges="top0A0.250.00 A0right0"/>
    </vehicle>
    <vehicle id="301" type="passenger" depart="133.20">
        <route edges="right0A0.250.00 A0top0"/>
    </vehicle>
    <vehicle id="302" type="passenger" depart="133.40">
        <route edges="right0A0 right0A0.250.00 A0bottom0"/>
    </vehicle>
    <vehicle id="303" type="passenger" depart="133.55">
        <route edges="left0A0 left0A0.250.00 A0bottom0"/>
    </vehicle>
    <vehicle id="305" type="passenger" depart="134.25">
        <route edges="top0A0 top0A0.250.00"/>
    </vehicle>
    <vehicle id="310" type="passenger" depart="135.55">
        <route edges="left0A0 left0A0.250.00 A0right0"/>
    </vehicle>
    <vehicle id="311" type="passenger" depart="136.40">
        <route edges="top0A0.250.00 A0left0"/>
    </vehicle>
    <vehicle id="315" type="passenger" depart="137.65">
        <route edges="bottom0A0.250.00 A0right0"/>
    </vehicle>
    <vehicle id="316" type="passenger" depart="138.00">
        <route edges="bottom0A0 bottom0A0.250.00 A0top0"/>
    </vehicle>
    <vehicle id="317" type="passenger" depart="138.50">
        <route edges="bottom0A0.250.00 A0left0"/>
    </vehicle>
    <vehicle id="322" type="passenger" depart="140.45">
        <route edges="right0A0.250.00"/>
    </vehicle>
    <vehicle id="327" type="passenger" depart="142.35">
        <route edges="right0A0 right0A0.250.00 A0left0"/>
    </vehicle>
    <vehicle id="329" type="passenger" depart="142.90">
        <route edges="top0A0 top0A0.250.00"/>
    </vehicle>
    <vehicle id="333" type="passenger" depart="143.35">
        <route edges="bottom0A0 bottom0A0.250.00 A0right0"/>
    </vehicle>
    <vehicle id="336" type="passenger" depart="145.35">
        <route edges="bottom0A0.250.00 A0top0"/>
    </vehicle>
    <vehicle id="338" type="passenger" depart="145.95">
        <route edges="right0A0.250.00 A0top0"/>
    </vehicle>
    <vehicle id="340" type="passenger" depart="147.95">
        <route edges="bottom0A0 bottom0A0.250.00 A0right0"/>
    </vehicle>
    <vehicle id="341" type="passenger" depart="148.00">
        <route edges="bottom0A0 bottom0A0.250.00 A0top0"/>
    </vehicle>
    <vehicle id="346" type="passenger" depart="149.60">
        <route edges="right0A0.250.00 A0left0"/>
    </vehicle>
    <vehicle id="347" type="passenger" depart="149.70">
        <route edges="bottom0A0 bottom0A0.250.00 A0right0"/>
    </vehicle>
    <vehicle id="348" type="passenger" depart="149.90">
        <route edges="top0A0.250.00"/>
    </vehicle>
    <vehicle id="351" type="passenger" depart="151.00">
        <route edges="bottom0A0 bottom0A0.250.00"/>
    </vehicle>
    <vehicle id="354" type="passenger" depart="151.70">
        <route edges="bottom0A0.250.00 A0top0"/>
    </vehicle>
    <vehicle id="358" type="passenger" depart="154.10">
        <route edges="bottom0A0 bottom0A0.250.00 A0right0"/>
    </vehicle>
    <vehicle id="359" type="passenger" depart="154.75">
        <route edges="bottom0A0 bottom0A0.250.00 A0right0"/>
    </vehicle>
    <vehicle id="360" type="passenger" depart="154.90">
        <route edges="left0A0 left0A0.250.00"/>
    </vehicle>
    <vehicle id="361" type="passenger" depart="155.15">
        <route edges="right0A0.250.00 A0left0"/>
    </vehicle>
    <vehicle id="364" type="passenger" depart="156.35">
        <route edges="right0A0.250.00"/>
    </vehicle>
    <vehicle id="367" type="passenger" depart="156.95">
        <route edges="top0A0.250.00 A0right0"/>
    </vehicle>
    <vehicle id="368" type="passenger" depart="157.40">
        <route edges="top0A0.250.00 A0left0"/>
    </vehicle>
    <vehicle id="384" type="passenger" depart="164.45">
        <route edges="top0A0 top0A0.250.00 A0left0"/>
    </vehicle>
    <vehicle id="385" type="passenger" depart="164.65">
        <route edges="right0A0.250.00 A0left0"/>
    </vehicle>
    <vehicle id="386" type="passenger" depart="166.45">
        <route edges="right0A0 right0A0.250.00 A0bottom0"/>
    </vehicle>
    <vehicle id="387" type="passenger" depart="166.55">
        <route edges="top0A0 top0A0.250.00 A0right0"/>
    </vehicle>
    <vehicle id="389" type="passenger" depart="167.60">
        <route edges="bottom0A0.250.00 A0left0"/>
    </vehicle>
    <vehicle id="393" type="passenger" depart="169.65">
        <route edges="top0A0 top0A0.250.00"/>
    </vehicle>
    <vehicle id="394" type="passenger" depart="170.30">
        <route edges="top0A0.250.00 A0left0"/>
    </vehicle>
    <vehicle id="397" type="passenger" depart="173.70">
        <route edges="top0A0 top0A0.250.00"/>
    </vehicle>
    <vehicle id="401" type="passenger" depart="174.75">
        <route edges="right0A0 right0A0.250.00 A0left0"/>
    </vehicle>
    <vehicle id="403" type="passenger" depart="175.55">
        <route edges="right0A0 right0A0.250.00"/>
    </vehicle>
    <vehicle id="405" type="passenger" depart="175.60">
        <route edges="left0A0.250.00"/>
    </vehicle>
    <vehicle id="407" type="passenger" depart="177.05">
        <route edges="left0A0.250.00 A0right0"/>
    </vehicle>
    <vehicle id="410" type="passenger" depart="181.05">
        <route edges="left0A0 left0A0.250.00 A0right0"/>
    </vehicle>
    <vehicle id="411" type="passenger" depart="181.15">
        <route edges="left0A0 left0A0.250.00 A0top0"/>
    </vehicle>
    <vehicle id="416" type="passenger" depart="184.60">
        <route edges="bottom0A0.250.00 A0left0"/>
    </vehicle>
    <vehicle id="417" type="passenger" depart="184.60">
        <route edges="right0A0 right0A0.250.00 A0top0"/>
    </vehicle>
    <vehicle id="418" type="passenger" depart="184.75">
        <route edges="bottom0A0.250.00"/>
    </vehicle>
    <vehicle id="420" type="passenger" depart="185.60">
        <route edges="left0A0 left0A0.250.00 A0top0"/>
    </vehicle>
    <vehicle id="422" type="passenger" depart="186.85">
        <route edges="left0A0.250.00 A0top0"/>
    </vehicle>
    <vehicle id="423" type="passenger" depart="186.95">
        <route edges="top0A0 top0A0.250.00 A0left0"/>
    </vehicle>
    <vehicle id="425" type="passenger" depart="187.55">
        <route edges="right0A0 right0A0.250.00 A0bottom0"/>
    </vehicle>
    <vehicle id="429" type="passenger" depart="188.90">
        <route edges="left0A0 left0A0.250.00 A0bottom0"/>
    </vehicle>
    <vehicle id="433" type="passenger" depart="191.50">
        <route edges="top0A0 top0A0.250.00"/>
    </vehicle>
    <vehicle id="434" type="passenger" depart="191.60">
        <route edges="top0A0.250.00 A0right0"/>
    </vehicle>
    <vehicle id="435" type="passenger" depart="191.90">
        <route edges="left0A0 left0A0.250.00 A0bottom0"/>
    </vehicle>
    <vehicle id="439" type="passenger" depart="194.85">
        <route edges="bottom0A0 bottom0A0.250.00 A0left0"/>
    </vehicle>
    <vehicle id="440" type="passenger" depart="195.00">
        <route edges="top0A0.250.00 A0left0"/>
    </vehicle>
    <vehicle id="443" type="passenger" depart="196.70">
        <route edges="right0A0 right0A0.250.00 A0bottom0"/>
    </vehicle>
    <vehicle id="445" type="passenger" depart="197.00">
        <route edges="left0A0 left0A0.250.00 A0top0"/>
    </vehicle>
    <vehicle id="447" type="passenger" depart="198.05">
        <route edges="right0A0.250.00"/>
    </vehicle>
    <vehicle id="450" type="passenger" depart="199.30">
        <route edges="top0A0.250.00 A0bottom0"/>
    </vehicle>
    <vehicle id="451" type="passenger" depart="200.45">
        <route edges="top0A0.250.00 A0bottom0"/>
    </vehicle>
    <vehicle id="452" type="passenger" depart="201.00">
        <route edges="bottom0A0.250.00 A0top0"/>
    </vehicle>
    <vehicle id="454" type="passenger" depart="201.35">
        <route edges="right0A0.250.00 A0left0"/>
    </vehicle>
    <vehicle id="456" type="passenger" depart="202.80">
        <route edges="right0A0.250.00 A0top0"/>
    </vehicle>
    <vehicle id="460" type="passenger" depart="204.95">
        <route edges="bottom0A0 bottom0A0.250.00 A0left0"/>
    </vehicle>
    <vehicle id="463" type="passenger" depart="205.50">
        <route edges="left0A0 left0A0.250.00 A0top0"/>
    </vehicle>
    <vehicle id="464" type="passenger" depart="205.85">
        <route edges="right0A0.250.00 A0top0"/>
    </vehicle>
    <vehicle id="466" type="passenger" depart="206.20">
        <route edges="left0A0 left0A0.250.00 A0top0"/>
    </vehicle>
    <vehicle id="474" type="passenger" depart="211.05">
        <route edges="top0A0.250.00"/>
    </vehicle>
    <vehicle id="477" type="passenger" depart="212.10">
        <route edges="bottom0A0 bottom0A0.250.00"/>
    </vehicle>
    <vehicle id="478" type="passenger" depart="212.15">
        <route edges="bottom0A0.250.00"/>
    </vehicle>
    <vehicle id="479" type="passenger" depart="212.20">
        <route edges="left0A0 left0A0.250.00 A0bottom0"/>
    </vehicle>
    <vehicle id="480" type="passenger" depart="212.85">
        <route edges="right0A0.250.00 A0top0"/>
    </vehicle>
    <vehicle id="481" type="passenger" depart="214.50">
        <route edges="top0A0.250.00 A0left0"/>
    </vehicle>
    <vehicle id="483" type="passenger" depart="215.10">
        <route edges="top0A0.250.00"/>
    </vehicle>
    <vehicle id="484" type="passenger" depart="215.10">
        <route edges="bottom0A0 bottom0A0.250.00 A0right0"/>
    </vehicle>
    <vehicle id="489" type="passenger" depart="216.25">
        <route edges="top0A0.250.00 A0right0"/>
    </vehicle>
    <vehicle id="491" type="passenger" depart="216.75">
        <route edges="bottom0A0.250.00 A0left0"/>
    </vehicle>
    <vehicle id="492" type="passenger" depart="216.95">
        <route edges="right0A0.250.00"/>
    </vehicle>
    <vehicle id="494" type="passenger" depart="217.45">
        <route edges="top0A0 top0A0.250.00 A0bottom0"/>
    </vehicle>