<?xml version="1.0" encoding="UTF-8"?>

<!-- generated on 2023-04-26 16:56:48.983737 by randomTrips.py UNKNOWN
<configuration>
    <begin value="0"/>
    <end value="900"/>
    <insertion-rate value="8000.0"/>
    <net-file value="/home/franky3er/Documents/code/HieraGLight/scenarios/grid/1x1-500m/train/36-scenario/network.net.xml"/>
    <random value="True"/>
    <random-depart value="True"/>
    <route-file value="/home/franky3er/Documents/code/HieraGLight/scenarios/grid/1x1-500m/train/36-scenario/routes.rou.xml"/>
    <seed value="36"/>
    <output-trip-file value="/home/franky3er/Documents/code/HieraGLight/scenarios/grid/1x1-500m/train/36-scenario/trips.trips.xml"/>
    <vehicle-class value="passenger"/>
</configuration>
-->

<!-- generated on 2023-04-26 16:56:48 by Eclipse SUMO duarouter Version 1.16.0
<configuration xmlns:xsi="http://www.w3.org/2001/XMLSchema-instance" xsi:noNamespaceSchemaLocation="http://sumo.dlr.de/xsd/duarouterConfiguration.xsd">

    <input>
        <net-file value="/home/franky3er/Documents/code/HieraGLight/scenarios/grid/1x1-500m/train/36-scenario/network.net.xml"/>
        <route-files value="/home/franky3er/Documents/code/HieraGLight/scenarios/grid/1x1-500m/train/36-scenario/trips.trips.xml"/>
    </input>

    <output>
        <output-file value="/home/franky3er/Documents/code/HieraGLight/scenarios/grid/1x1-500m/train/36-scenario/routes.rou.xml"/>
        <alternatives-output value="NUL"/>
    </output>

    <time>
        <begin value="0"/>
        <end value="900"/>
    </time>

    <report>
        <no-warnings value="true"/>
        <ignore-errors value="true"/>
        <no-step-log value="true"/>
    </report>

</configuration>
-->

<routes xmlns:xsi="http://www.w3.org/2001/XMLSchema-instance" xsi:noNamespaceSchemaLocation="http://sumo.dlr.de/xsd/routes_file.xsd">
    <vType id="passenger" vClass="passenger"/>
    <vehicle id="2" type="passenger" depart="0.95">
        <route edges="bottom0A0.250.00 A0right0"/>
    </vehicle>
    <vehicle id="3" type="passenger" depart="1.00">
        <route edges="left0A0 left0A0.250.00 A0right0"/>
    </vehicle>
    <vehicle id="4" type="passenger" depart="1.60">
        <route edges="left0A0 left0A0.250.00"/>
    </vehicle>
    <vehicle id="5" type="passenger" depart="1.65">
        <route edges="right0A0.250.00 A0top0"/>
    </vehicle>
    <vehicle id="6" type="passenger" depart="3.35">
        <route edges="right0A0.250.00 A0bottom0"/>
    </vehicle>
    <vehicle id="7" type="passenger" depart="3.35">
        <route edges="right0A0 right0A0.250.00 A0bottom0"/>
    </vehicle>
    <vehicle id="9" type="passenger" depart="4.40">
        <route edges="top0A0 top0A0.250.00 A0bottom0"/>
    </vehicle>
    <vehicle id="11" type="passenger" depart="5.05">
        <route edges="bottom0A0 bottom0A0.250.00 A0left0"/>
    </vehicle>
    <vehicle id="16" type="passenger" depart="6.70">
        <route edges="top0A0 top0A0.250.00 A0bottom0"/>
    </vehicle>
    <vehicle id="18" type="passenger" depart="7.60">
        <route edges="right0A0.250.00 A0left0"/>
    </vehicle>
    <vehicle id="20" type="passenger" depart="8.00">
        <route edges="bottom0A0.250.00"/>
    </vehicle>
    <vehicle id="24" type="passenger" depart="8.50">
        <route edges="bottom0A0 bottom0A0.250.00"/>
    </vehicle>
    <vehicle id="28" type="passenger" depart="10.40">
        <route edges="left0A0 left0A0.250.00"/>
    </vehicle>
    <vehicle id="30" type="passenger" depart="11.20">
        <route edges="left0A0.250.00 A0bottom0"/>
    </vehicle>
    <vehicle id="31" type="passenger" depart="11.30">
        <route edges="bottom0A0 bottom0A0.250.00 A0right0"/>
    </vehicle>
    <vehicle id="32" type="passenger" depart="11.45">
        <route edges="right0A0.250.00"/>
    </vehicle>
    <vehicle id="33" type="passenger" depart="11.45">
        <route edges="right0A0 right0A0.250.00 A0top0"/>
    </vehicle>
    <vehicle id="34" type="passenger" depart="11.50">
        <route edges="left0A0.250.00 A0top0"/>
    </vehicle>
    <vehicle id="35" type="passenger" depart="11.95">
        <route edges="left0A0.250.00 A0bottom0"/>
    </vehicle>
    <vehicle id="36" type="passenger" depart="14.35">
        <route edges="bottom0A0 bottom0A0.250.00"/>
    </vehicle>
    <vehicle id="37" type="passenger" depart="15.15">
        <route edges="bottom0A0 bottom0A0.250.00 A0right0"/>
    </vehicle>
    <vehicle id="43" type="passenger" depart="18.55">
        <route edges="bottom0A0.250.00 A0left0"/>
    </vehicle>
    <vehicle id="44" type="passenger" depart="20.00">
        <route edges="top0A0 top0A0.250.00 A0left0"/>
    </vehicle>
    <vehicle id="45" type="passenger" depart="20.75">
        <route edges="left0A0 left0A0.250.00 A0right0"/>
    </vehicle>
    <vehicle id="46" type="passenger" depart="20.80">
        <route edges="bottom0A0 bottom0A0.250.00"/>
    </vehicle>
    <vehicle id="49" type="passenger" depart="23.20">
        <route edges="bottom0A0.250.00"/>
    </vehicle>
    <vehicle id="51" type="passenger" depart="24.10">
        <route edges="left0A0.250.00 A0bottom0"/>
    </vehicle>
    <vehicle id="55" type="passenger" depart="25.45">
        <route edges="top0A0.250.00 A0right0"/>
    </vehicle>
    <vehicle id="56" type="passenger" depart="26.10">
        <route edges="left0A0.250.00 A0bottom0"/>
    </vehicle>
    <vehicle id="57" type="passenger" depart="26.75">
        <route edges="left0A0 left0A0.250.00 A0right0"/>
    </vehicle>
    <vehicle id="63" type="passenger" depart="29.40">
        <route edges="right0A0.250.00 A0bottom0"/>
    </vehicle>
    <vehicle id="65" type="passenger" depart="32.80">
        <route edges="bottom0A0.250.00"/>
    </vehicle>
    <vehicle id="66" type="passenger" depart="33.80">
        <route edges="left0A0 left0A0.250.00 A0top0"/>
    </vehicle>
    <vehicle id="68" type="passenger" depart="34.50">
        <route edges="top0A0 top0A0.250.00"/>
    </vehicle>
    <vehicle id="69" type="passenger" depart="35.45">
        <route edges="top0A0.250.00 A0right0"/>
    </vehicle>
    <vehicle id="70" type="passenger" depart="35.85">
        <route edges="left0A0 left0A0.250.00 A0top0"/>
    </vehicle>
    <vehicle id="72" type="passenger" depart="36.15">
        <route edges="bottom0A0.250.00 A0right0"/>
    </vehicle>
    <vehicle id="74" type="passenger" depart="37.65">
        <route edges="left0A0.250.00 A0top0"/>
    </vehicle>
    <vehicle id="80" type="passenger" depart="41.10">
        <route edges="bottom0A0.250.00 A0left0"/>
    </vehicle>
    <vehicle id="82" type="passenger" depart="43.15">
        <route edges="right0A0.250.00 A0left0"/>
    </vehicle>
    <vehicle id="83" type="passenger" depart="43.75">
        <route edges="bottom0A0 bottom0A0.250.00 A0right0"/>
    </vehicle>
    <vehicle id="84" type="passenger" depart="44.45">
        <route edges="bottom0A0.250.00 A0left0"/>
    </vehicle>
    <vehicle id="85" type="passenger" depart="45.35">
        <route edges="bottom0A0.250.00"/>
    </vehicle>
    <vehicle id="88" type="passenger" depart="46.20">
        <route edges="right0A0 right0A0.250.00 A0bottom0"/>
    </vehicle>
    <vehicle id="89" type="passenger" depart="46.35">
        <route edges="bottom0A0.250.00"/>
    </vehicle>
    <vehicle id="94" type="passenger" depart="49.80">
        <route edges="left0A0.250.00 A0top0"/>
    </vehicle>
    <vehicle id="97" type="passenger" depart="50.85">
        <route edges="left0A0.250.00 A0right0"/>
    </vehicle>
    <vehicle id="98" type="passenger" depart="51.40">
        <route edges="left0A0.250.00 A0right0"/>
    </vehicle>
    <vehicle id="101" type="passenger" depart="52.65">
        <route edges="top0A0.250.00 A0left0"/>
    </vehicle>
    <vehicle id="103" type="passenger" depart="52.70">
        <route edges="top0A0 top0A0.250.00"/>
    </vehicle>
    <vehicle id="104" type="passenger" depart="52.95">
        <route edges="right0A0.250.00 A0top0"/>
    </vehicle>
    <vehicle id="105" type="passenger" depart="53.15">
        <route edges="top0A0.250.00 A0left0"/>
    </vehicle>
    <vehicle id="112" type="passenger" depart="55.50">
        <route edges="top0A0.250.00 A0bottom0"/>
    </vehicle>
    <vehicle id="113" type="passenger" depart="55.60">
        <route edges="top0A0.250.00 A0bottom0"/>
    </vehicle>
    <vehicle id="114" type="passenger" depart="55.65">
        <route edges="left0A0.250.00 A0top0"/>
    </vehicle>
    <vehicle id="115" type="passenger" depart="57.45">
        <route edges="right0A0 right0A0.250.00"/>
    </vehicle>
    <vehicle id="116" type="passenger" depart="57.50">
        <route edges="top0A0 top0A0.250.00 A0left0"/>
    </vehicle>
    <vehicle id="121" type="passenger" depart="58.50">
        <route edges="top0A0 top0A0.250.00"/>
    </vehicle>
    <vehicle id="123" type="passenger" depart="59.05">
        <route edges="left0A0.250.00 A0top0"/>
    </vehicle>
    <vehicle id="127" type="passenger" depart="61.60">
        <route edges="left0A0.250.00"/>
    </vehicle>
    <vehicle id="128" type="passenger" depart="61.75">
        <route edges="top0A0.250.00 A0right0"/>
    </vehicle>
    <vehicle id="129" type="passenger" depart="62.50">
        <route edges="bottom0A0 bottom0A0.250.00"/>
    </vehicle>
    <vehicle id="130" type="passenger" depart="62.70">
        <route edges="top0A0.250.00"/>
    </vehicle>
    <vehicle id="131" type="passenger" depart="63.05">
        <route edges="left0A0.250.00"/>
    </vehicle>
    <vehicle id="136" type="passenger" depart="65.25">
        <route edges="bottom0A0 bottom0A0.250.00 A0right0"/>
    </vehicle>
    <vehicle id="137" type="passenger" depart="65.30">
        <route edges="bottom0A0.250.00 A0top0"/>
    </vehicle>
    <vehicle id="141" type="passenger" depart="66.40">
        <route edges="bottom0A0 bottom0A0.250.00 A0left0"/>
    </vehicle>
    <vehicle id="146" type="passenger" depart="68.80">
        <route edges="right0A0.250.00 A0bottom0"/>
    </vehicle>
    <vehicle id="147" type="passenger" depart="69.45">
        <route edges="bottom0A0 bottom0A0.250.00"/>
    </vehicle>
    <vehicle id="149" type="passenger" depart="69.50">
        <route edges="left0A0 left0A0.250.00 A0top0"/>
    </vehicle>
    <vehicle id="150" type="passenger" depart="69.50">
        <route edges="bottom0A0 bottom0A0.250.00 A0left0"/>
    </vehicle>
    <vehicle id="151" type="passenger" depart="69.60">
        <route edges="bottom0A0.250.00 A0top0"/>
    </vehicle>
    <vehicle id="152" type="passenger" depart="70.65">
        <route edges="bottom0A0 bottom0A0.250.00 A0top0"/>
    </vehicle>
    <vehicle id="155" type="passenger" depart="72.85">
        <route edges="left0A0.250.00 A0right0"/>
    </vehicle>
    <vehicle id="156" type="passenger" depart="73.40">
        <route edges="top0A0 top0A0.250.00 A0right0"/>
    </vehicle>
    <vehicle id="159" type="passenger" depart="74.30">
        <route edges="right0A0.250.00 A0top0"/>
    </vehicle>
    <vehicle id="160" type="passenger" depart="74.35">
        <route edges="left0A0.250.00 A0top0"/>
    </vehicle>
    <vehicle id="163" type="passenger" depart="75.40">
        <route edges="top0A0 top0A0.250.00 A0left0"/>
    </vehicle>
    <vehicle id="164" type="passenger" depart="75.60">
        <route edges="top0A0.250.00 A0bottom0"/>
    </vehicle>
    <vehicle id="165" type="passenger" depart="77.05">
        <route edges="top0A0 top0A0.250.00 A0left0"/>
    </vehicle>
    <vehicle id="166" type="passenger" depart="77.30">
        <route edges="bottom0A0.250.00 A0left0"/>
    </vehicle>
    <vehicle id="167" type="passenger" depart="77.60">
        <route edges="left0A0.250.00 A0bottom0"/>
    </vehicle>
    <vehicle id="171" type="passenger" depart="79.90">
        <route edges="left0A0.250.00"/>
    </vehicle>
    <vehicle id="173" type="passenger" depart="82.60">
        <route edges="top0A0 top0A0.250.00 A0left0"/>
    </vehicle>
    <vehicle id="174" type="passenger" depart="83.30">
        <route edges="right0A0.250.00 A0bottom0"/>
    </vehicle>
    <vehicle id="177" type="passenger" depart="83.85">
        <route edges="left0A0.250.00 A0top0"/>
    </vehicle>
    <vehicle id="179" type="passenger" depart="86.10">
        <route edges="left0A0.250.00 A0right0"/>
    </vehicle>
    <vehicle id="180" type="passenger" depart="86.25">
        <route edges="bottom0A0.250.00 A0right0"/>
    </vehicle>
    <vehicle id="181" type="passenger" depart="86.95">
        <route edges="bottom0A0 bottom0A0.250.00 A0right0"/>
    </vehicle>
    <vehicle id="183" type="passenger" depart="87.70">
        <route edges="left0A0 left0A0.250.00 A0right0"/>
    </vehicle>
    <vehicle id="186" type="passenger" depart="88.75">
        <route edges="left0A0 left0A0.250.00 A0top0"/>
    </vehicle>
    <vehicle id="187" type="passenger" depart="89.60">
        <route edges="top0A0 top0A0.250.00 A0left0"/>
    </vehicle>
    <vehicle id="189" type="passenger" depart="90.20">
        <route edges="top0A0.250.00 A0left0"/>
    </vehicle>
    <vehicle id="190" type="passenger" depart="90.25">
        <route edges="right0A0 right0A0.250.00 A0left0"/>
    </vehicle>
    <vehicle id="191" type="passenger" depart="91.25">
        <route edges="bottom0A0 bottom0A0.250.00 A0right0"/>
    </vehicle>
    <vehicle id="193" type="passenger" depart="91.70">
        <route edges="left0A0 left0A0.250.00 A0right0"/>
    </vehicle>
    <vehicle id="194" type="passenger" depart="92.35">
        <route edges="left0A0 left0A0.250.00 A0right0"/>
    </vehicle>
    <vehicle id="196" type="passenger" depart="93.65">
        <route edges="right0A0.250.00 A0bottom0"/>
    </vehicle>
    <vehicle id="197" type="passenger" depart="93.75">
        <route edges="right0A0 right0A0.250.00 A0bottom0"/>
    </vehicle>
    <vehicle id="203" type="passenger" depart="96.20">
        <route edges="bottom0A0 bottom0A0.250.00 A0top0"/>
    </vehicle>
    <vehicle id="205" type="passenger" depart="96.80">
        <route edges="right0A0 right0A0.250.00 A0bottom0"/>
    </vehicle>
    <vehicle id="206" type="passenger" depart="97.05">
        <route edges="right0A0.250.00 A0top0"/>
    </vehicle>
    <vehicle id="207" type="passenger" depart="97.35">
        <route edges="top0A0.250.00 A0left0"/>
    </vehicle>
    <vehicle id="208" type="passenger" depart="98.00">
        <route edges="bottom0A0.250.00 A0right0"/>
    </vehicle>
    <vehicle id="215" type="passenger" depart="100.60">
        <route edges="bottom0A0 bottom0A0.250.00 A0left0"/>
    </vehicle>
    <vehicle id="218" type="passenger" depart="102.15">
        <route edges="top0A0.250.00 A0left0"/>
    </vehicle>
    <vehicle id="220" type="passenger" depart="102.70">
        <route edges="bottom0A0.250.00"/>
    </vehicle>
    <vehicle id="223" type="passenger" depart="103.50">
        <route edges="left0A0.250.00 A0right0"/>
    </vehicle>
    <vehicle id="224" type="passenger" depart="103.65">
        <route edges="bottom0A0 bottom0A0.250.00 A0top0"/>
    </vehicle>
    <vehicle id="228" type="passenger" depart="106.75">
        <route edges="bottom0A0 bottom0A0.250.00"/>
    </vehicle>
    <vehicle id="230" type="passenger" depart="107.85">
        <route edges="right0A0 right0A0.250.00 A0bottom0"/>
    </vehicle>
    <vehicle id="232" type="passenger" depart="108.05">
        <route edges="left0A0 left0A0.250.00"/>
    </vehicle>
    <vehicle id="233" type="passenger" depart="108.70">
        <route edges="left0A0.250.00"/>
    </vehicle>
    <vehicle id="235" type="passenger" depart="109.40">
        <route edges="top0A0.250.00"/>
    </vehicle>
    <vehicle id="236" type="passenger" depart="109.75">
        <route edges="right0A0.250.00"/>
    </vehicle>
    <vehicle id="241" type="passenger" depart="111.40">
        <route edges="right0A0 right0A0.250.00 A0left0"/>
    </vehicle>
    <vehicle id="242" type="passenger" depart="111.80">
        <route edges="left0A0.250.00"/>
    </vehicle>
    <vehicle id="243" type="passenger" depart="112.65">
        <route edges="bottom0A0.250.00 A0left0"/>
    </vehicle>
    <vehicle id="244" type="passenger" depart="112.70">
        <route edges="left0A0.250.00 A0right0"/>
    </vehicle>
    <vehicle id="245" type="passenger" depart="112.85">
        <route edges="right0A0 right0A0.250.00 A0left0"/>
    </vehicle>
    <vehicle id="246" type="passenger" depart="113.10">
        <route edges="left0A0.250.00 A0right0"/>
    </vehicle>
    <vehicle id="249" type="passenger" depart="113.95">
        <route edges="right0A0.250.00 A0left0"/>
    </vehicle>
    <vehicle id="250" type="passenger" depart="114.50">
        <route edges="bottom0A0.250.00 A0right0"/>
    </vehicle>
    <vehicle id="253" type="passenger" depart="114.80">
        <route edges="right0A0 right0A0.250.00 A0top0"/>
    </vehicle>
    <vehicle id="254" type="passenger" depart="115.15">
        <route edges="bottom0A0 bottom0A0.250.00 A0top0"/>
    </vehicle>
    <vehicle id="256" type="passenger" depart="115.70">
        <route edges="left0A0 left0A0.250.00 A0right0"/>
    </vehicle>
    <vehicle id="257" type="passenger" depart="116.10">
        <route edges="left0A0.250.00 A0bottom0"/>
    </vehicle>
    <vehicle id="260" type="passenger" depart="118.70">
        <route edges="top0A0.250.00 A0bottom0"/>
    </vehicle>
    <vehicle id="262" type="passenger" depart="119.30">
        <route edges="bottom0A0.250.00 A0top0"/>
    </vehicle>
    <vehicle id="263" type="passenger" depart="119.55">
        <route edges="bottom0A0 bottom0A0.250.00 A0left0"/>
    </vehicle>
    <vehicle id="264" type="passenger" depart="119.70">
        <route edges="left0A0 left0A0.250.00"/>
    </vehicle>
    <vehicle id="266" type="passenger" depart="121.40">
        <route edges="right0A0.250.00 A0top0"/>
    </vehicle>
    <vehicle id="274" type="passenger" depart="125.25">
        <route edges="left0A0.250.00 A0bottom0"/>
    </vehicle>
    <vehicle id="275" type="passenger" depart="126.00">
        <route edges="bottom0A0.250.00 A0top0"/>
    </vehicle>
    <vehicle id="276" type="passenger" depart="126.80">
        <route edges="top0A0.250.00 A0left0"/>
    </vehicle>
    <vehicle id="278" type="passenger" depart="127.20">
        <route edges="left0A0 left0A0.250.00 A0top0"/>
    </vehicle>
    <vehicle id="279" type="passenger" depart="127.65">
        <route edges="top0A0.250.00 A0bottom0"/>
    </vehicle>
    <vehicle id="281" type="passenger" depart="129.90">
        <route edges="bottom0A0.250.00 A0top0"/>
    </vehicle>
    <vehicle id="282" type="passenger" depart="130.20">
        <route edges="bottom0A0 bottom0A0.250.00 A0right0"/>
    </vehicle>
    <vehicle id="283" type="passenger" depart="130.20">
        <route edges="bottom0A0 bottom0A0.250.00 A0left0"/>
    </vehicle>
    <vehicle id="284" type="passenger" depart="131.00">
        <route edges="right0A0.250.00 A0top0"/>
    </vehicle>
    <vehicle id="285" type="passenger" depart="131.30">
        <route edges="bottom0A0 bottom0A0.250.00"/>
    </vehicle>
    <vehicle id="287" type="passenger" depart="131.90">
        <route edges="bottom0A0.250.00 A0top0"/>
    </vehicle>
    <vehicle id="288" type="passenger" depart="131.95">
        <route edges="bottom0A0 bottom0A0.250.00 A0left0"/>
    </vehicle>
    <vehicle id="289" type="passenger" depart="133.20">
        <route edges="bottom0A0 bottom0A0.250.00 A0right0"/>
    </vehicle>
    <vehicle id="290" type="passenger" depart="133.35">
        <route edges="bottom0A0 bottom0A0.250.00 A0right0"/>
    </vehicle>
    <vehicle id="294" type="passenger" depart="136.60">
        <route edges="top0A0 top0A0.250.00"/>
    </vehicle>
    <vehicle id="297" type="passenger" depart="140.25">
        <route edges="right0A0 right0A0.250.00 A0bottom0"/>
    </vehicle>
    <vehicle id="298" type="passenger" depart="140.70">
        <route edges="bottom0A0.250.00 A0right0"/>
    </vehicle>
    <vehicle id="302" type="passenger" depart="141.90">
        <route edges="top0A0.250.00 A0left0"/>
    </vehicle>
    <vehicle id="306" type="passenger" depart="144.30">
        <route edges="right0A0 right0A0.250.00 A0top0"/>
    </vehicle>
    <vehicle id="307" type="passenger" depart="144.40">
        <route edges="right0A0.250.00 A0top0"/>
    </vehicle>
    <vehicle id="308" type="passenger" depart="144.40">
        <route edges="left0A0 left0A0.250.00 A0bottom0"/>
    </vehicle>
    <vehicle id="311" type="passenger" depart="146.00">
        <route edges="bottom0A0.250.00"/>
    </vehicle>
    <vehicle id="312" type="passenger" depart="147.25">
        <route edges="bottom0A0.250.00 A0left0"/>
    </vehicle>
    <vehicle id="317" type="passenger" depart="152.35">
        <route edges="top0A0.250.00"/>
    </vehicle>
    <vehicle id="318" type="passenger" depart="152.35">
        <route edges="left0A0 left0A0.250.00 A0right0"/>
    </vehicle>
    <vehicle id="319" type="passenger" depart="152.35">
        <route edges="bottom0A0 bottom0A0.250.00"/>
    </vehicle>
    <vehicle id="320" type="passenger" depart="154.10">
        <route edges="bottom0A0.250.00 A0right0"/>
    </vehicle>
    <vehicle id="323" type="passenger" depart="156.90">
        <route edges="right0A0.250.00 A0left0"/>
    </vehicle>
    <vehicle id="324" type="passenger" depart="157.25">
        <route edges="bottom0A0.250.00 A0right0"/>
    </vehicle>
    <vehicle id="326" type="passenger" depart="158.05">
        <route edges="bottom0A0 bottom0A0.250.00 A0top0"/>
    </vehicle>
    <vehicle id="327" type="passenger" depart="159.30">
        <route edges="left0A0 left0A0.250.00 A0top0"/>
    </vehicle>
    <vehicle id="329" type="passenger" depart="160.70">
        <route edges="top0A0 top0A0.250.00 A0right0"/>
    </vehicle>
    <vehicle id="334" type="passenger" depart="166.25">
        <route edges="right0A0.250.00 A0top0"/>
    </vehicle>
    <vehicle id="337" type="passenger" depart="169.70">
        <route edges="left0A0.250.00"/>
    </vehicle>
    <vehicle id="338" type="passenger" depart="169.90">
        <route edges="top0A0.250.00 A0bottom0"/>
    </vehicle>
    <vehicle id="339" type="passenger" depart="170.40">
        <route edges="right0A0 right0A0.250.00 A0left0"/>
    </vehicle>
    <vehicle id="342" type="passenger" depart="172.70">
        <route edges="right0A0 right0A0.250.00"/>
    </vehicle>
    <vehicle id="344" type="passenger" depart="172.85">
        <route edges="right0A0 right0A0.250.00 A0bottom0"/>
    </vehicle>
    <vehicle id="347" type="passenger" depart="176.10">
        <route edges="top0A0 top0A0.250.00 A0left0"/>
    </vehicle>
    <vehicle id="348" type="passenger" depart="177.50">
        <route edges="bottom0A0.250.00 A0top0"/>
    </vehicle>
    <vehicle id="351" type="passenger" depart="179.20">
        <route edges="right0A0.250.00 A0top0"/>
    </vehicle>
    <vehicle id="352" type="passenger" depart="179.45">
        <route edges="right0A0 right0A0.250.00 A0top0"/>
    </vehicle>
    <vehicle id="353" type="passenger" depart="180.05">
        <route edges="bottom0A0.250.00"/>
    </vehicle>
    <vehicle id="354" type="passenger" depart="180.70">
        <route edges="left0A0.250.00 A0bottom0"/>
    </vehicle>
    <vehicle id="355" type="passenger" depart="181.45">
        <route edges="bottom0A0.250.00 A0right0"/>
    </vehicle>
    <vehicle id="356" type="passenger" depart="181.70">
        <route edges="left0A0 left0A0.250.00"/>
    </vehicle>
    <vehicle id="357" type="passenger" depart="182.50">
        <route edges="top0A0.250.00 A0bottom0"/>
    </vehicle>
    <vehicle id="358" type="passenger" depart="182.50">
        <route edges="top0A0 top0A0.250.00"/>
    </vehicle>
    <vehicle id="359" type="passenger" depart="182.65">
        <route edges="right0A0.250.00 A0top0"/>
    </vehicle>
    <vehicle id="360" type="passenger" depart="182.75">
        <route edges="bottom0A0.250.00 A0top0"/>
    </vehicle>
    <vehicle id="363" type="passenger" depart="183.55">
        <route edges="right0A0 right0A0.250.00 A0bottom0"/>
    </vehicle>
    <vehicle id="365" type="passenger" depart="184.45">
        <route edges="bottom0A0 bottom0A0.250.00"/>
    </vehicle>
    <vehicle id="366" type="passenger" depart="185.45">
        <route edges="bottom0A0.250.00 A0left0"/>
    </vehicle>
    <vehicle id="367" type="passenger" depart="185.45">
        <route edges="right0A0 right0A0.250.00 A0left0"/>
    </vehicle>
    <vehicle id="372" type="passenger" depart="189.00">
        <route edges="top0A0 top0A0.250.00"/>
    </vehicle>
    <vehicle id="375" type="passenger" depart="190.45">
        <route edges="right0A0.250.00"/>
    </vehicle>
    <vehicle id="376" type="passenger" depart="191.35">
        <route edges="bottom0A0.250.00 A0right0"/>
    </vehicle>
    <vehicle id="377" type="passenger" depart="191.95">
        <route edges="top0A0 top0A0.250.00 A0right0"/>
    </vehicle>
    <vehicle id="379" type="passenger" depart="192.10">
        <route edges="top0A0 top0A0.250.00 A0right0"/>
    </vehicle>
    <vehicle id="380" type="passenger" depart="192.30">
        <route edges="right0A0 right0A0.250.00 A0top0"/>
    </vehicle>
    <vehicle id="381" type="passenger" depart="192.35">
        <route edges="top0A0 top0A0.250.00"/>
    </vehicle>
    <vehicle id="383" type="passenger" depart="193.70">
        <route edges="bottom0A0.250.00"/>
    </vehicle>
    <vehicle id="387" type="passenger" depart="195.25">
        <route edges="left0A0 left0A0.250.00"/>
    </vehicle>
    <vehicle id="388" type="passenger" depart="195.35">
        <route edges="right0A0.250.00 A0top0"/>
    </vehicle>
    <vehicle id="392" type="passenger" depart="196.55">
        <route edges="right0A0.250.00 A0bottom0"/>
    </vehicle>
    <vehicle id="393" type="passenger" depart="197.10">
        <route edges="left0A0 left0A0.250.00 A0right0"/>
    </vehicle>
    <vehicle id="394" type="passenger" depart="197.10">
        <route edges="right0A0.250.00"/>
    </vehicle>
    <vehicle id="399" type="passenger" depart="199.35">
        <route edges="left0A0.250.00 A0top0"/>
    </vehicle>
    <vehicle id="405" type="passenger" depart="200.05">
        <route edges="right0A0 right0A0.250.00 A0bottom0"/>
    </vehicle>
    <vehicle id="408" type="passenger" depart="201.05">
        <route edges="top0A0.250.00"/>
    </vehicle>
    <vehicle id="409" type="passenger" depart="201.20">
        <route edges="bottom0A0 bottom0A0.250.00"/>
    </vehicle>
    <vehicle id="410" type="passenger" depart="201.40">
        <route edges="right0A0.250.00 A0top0"/>
    </vehicle>
    <vehicle id="411" type="passenger" depart="202.00">
        <route edges="right0A0 right0A0.250.00 A0left0"/>
    </vehicle>
    <vehicle id="412" type="passenger" depart="202.15">
        <route edges="bottom0A0.250.00"/>
    </vehicle>
    <vehicle id="413" type="passenger" depart="202.30">
        <route edges="right0A0 right0A0.250.00"/>
    </vehicle>
    <vehicle id="414" type="passenger" depart="202.90">
        <route edges="top0A0 top0A0.250.00"/>
    </vehicle>
    <vehicle id="417" type="passenger" depart="203.85">
        <route edges="left0A0.250.00"/>
    </vehicle>
    <vehicle id="419" type="passenger" depart="204.20">
        <route edges="right0A0.250.00 A0bottom0"/>
    </vehicle>
    <vehicle id="420" type="passenger" depart="204.40">
        <route edges="bottom0A0 bottom0A0.250.00 A0right0"/>
    </vehicle>
    <vehicle id="421" type="passenger" depart="204.60">
        <route edges="bottom0A0.250.00 A0left0"/>
    </vehicle>
    <vehicle id="422" type="passenger" depart="204.65">
        <route edges="left0A0.250.00 A0bottom0"/>
    </vehicle>
    <vehicle id="423" type="passenger" depart="205.00">
        <route edges="right0A0 right0A0.250.00"/>
    </vehicle>
    <vehicle id="425" type="passenger" depart="205.50">
        <route edges="right0A0.250.00 A0bottom0"/>
    </vehicle>
    <vehicle id="426" type="passenger" depart="205.50">
        <route edges="top0A0 top0A0.250.00 A0bottom0"/>
    </vehicle>
    <vehicle id="429" type="passenger" depart="206.50">
        <route edges="top0A0 top0A0.250.00"/>
    </vehicle>
    <vehicle id="437" type="passenger" depart="209.35">
        <route edges="top0A0.250.00 A0bottom0"/>
    </vehicle>
    <vehicle id="438" type="passenger" depart="211.00">
        <route edges="right0A0 right0A0.250.00 A0top0"/>
    </vehicle>
    <vehicle id="439" type="passenger" depart="211.10">
        <route edges="bottom0A0.250.00"/>
    </vehicle>
    <vehicle id="441" type="passenger" depart="212.25">
        <route edges="top0A0 top0A0.250.00 A0right0"/>
    </vehicle>
    <vehicle id="443" type="passenger" depart="213.00">
        <route edges="top0A0.250.00"/>
    </vehicle>
    <vehicle id="446" type="passenger" depart="213.60">
        <route edges="left0A0 left0A0.250.00 A0bottom0"/>
    </vehicle>
    <vehicle id="448" type="passenger" depart="214.35">
        <route edges="bottom0A0 bottom0A0.250.00"/>
    </vehicle>
    <vehicle id="452" type="passenger" depart="216.25">
        <route edges="right0A0.250.00 A0top0"/>
    </vehicle>
    <vehicle id="453" type="passenger" depart="216.45">
        <route edges="right0A0 right0A0.250.00 A0left0"/>
    </vehicle>
    <vehicle id="456" type="passenger" depart="216.80">
        <route edges="left0A0.250.00 A0bottom0"/>
    </vehicle>
    <vehicle id="457" type="passenger" depart="217.10">
        <route edges="right0A0.250.00"/>
    </vehicle>
    <vehicle id="458" type="passenger" depart="217.75">
        <route edges="bottom0A0 bottom0A0.250.00"/>
    </vehicle>
    <vehicle id="463" type="passenger" depart="219.90">
        <route edges="right0A0 right0A0.250.00 A0top0"/>
    </vehicle>
    <vehicle id="464" type="passenger" depart="220.10">
        <route edges="right0A0 right0A0.250.00 A0left0"/>
    </vehicle>
    <vehicle id="467" type="passenger" depart="221.50">