<?xml version="1.0" encoding="UTF-8"?>

<!-- generated on 2023-05-04 15:20:48.332136 by randomTrips.py UNKNOWN
<configuration>
    <net-file value="/home/franky3er/Documents/code/HieraGLight/scenarios/grid/3x3-150m/train/76-scenario/network.net.xml"/>
    <output-trip-file value="/home/franky3er/Documents/code/HieraGLight/scenarios/grid/3x3-150m/train/76-scenario/trips.trips.xml"/>
    <route-file value="/home/franky3er/Documents/code/HieraGLight/scenarios/grid/3x3-150m/train/76-scenario/routes.rou.xml"/>
    <end value="900.0"/>
    <random-depart value="True"/>
    <seed value="76"/>
    <random value="True"/>
    <vehicle-class value="passenger"/>
    <insertion-rate value="6000.0"/>
</configuration>
-->

<!-- generated on 2023-05-04 15:20:48 by Eclipse SUMO duarouter Version 1.17.0
<configuration xmlns:xsi="http://www.w3.org/2001/XMLSchema-instance" xsi:noNamespaceSchemaLocation="http://sumo.dlr.de/xsd/duarouterConfiguration.xsd">

    <input>
        <net-file value="/home/franky3er/Documents/code/HieraGLight/scenarios/grid/3x3-150m/train/76-scenario/network.net.xml"/>
        <route-files value="/home/franky3er/Documents/code/HieraGLight/scenarios/grid/3x3-150m/train/76-scenario/trips.trips.xml"/>
    </input>

    <output>
        <output-file value="/home/franky3er/Documents/code/HieraGLight/scenarios/grid/3x3-150m/train/76-scenario/routes.rou.xml"/>
        <alternatives-output value="NUL"/>
    </output>

    <time>
        <begin value="0.0"/>
        <end value="900.0"/>
    </time>

    <report>
        <no-warnings value="true"/>
        <ignore-errors value="true"/>
        <no-step-log value="true"/>
    </report>

</configuration>
-->

<routes xmlns:xsi="http://www.w3.org/2001/XMLSchema-instance" xsi:noNamespaceSchemaLocation="http://sumo.dlr.de/xsd/routes_file.xsd">
    <vType id="passenger" vClass="passenger"/>
    <vehicle id="0" type="passenger" depart="0.00">
        <route edges="left0A0 left0A0.80.00 A0B0 A0B0.80.00 B0B1 B0B1.80.00 B1B2 B1B2.80.00 B2A2 B2A2.80.00 A2A1 A2A1.80.00"/>
    </vehicle>
    <vehicle id="1" type="passenger" depart="0.80">
        <route edges="C0C1.80.00 C1B1 C1B1.80.00 B1B2 B1B2.80.00 B2top1"/>
    </vehicle>
    <vehicle id="2" type="passenger" depart="1.20">
        <route edges="left2A2 left2A2.80.00 A2B2 A2B2.80.00 B2B1 B2B1.80.00 B1B0 B1B0.80.00"/>
    </vehicle>
    <vehicle id="3" type="passenger" depart="1.20">
        <route edges="top1B2 top1B2.80.00 B2B1 B2B1.80.00 B1A1 B1A1.80.00 A1A2 A1A2.80.00"/>
    </vehicle>
    <vehicle id="4" type="passenger" depart="1.20">
        <route edges="A2A1 A2A1.80.00 A1B1 A1B1.80.00 B1C1 B1C1.80.00 C1C2 C1C2.80.00 C2B2 C2B2.80.00 B2B1"/>
    </vehicle>
    <vehicle id="6" type="passenger" depart="3.80">
        <route edges="B0A0.80.00 A0A1 A0A1.80.00 A1B1 A1B1.80.00 B1C1 B1C1.80.00 C1C0 C1C0.80.00 C0B0 C0B0.80.00 B0B1 B0B1.80.00"/>
    </vehicle>
    <vehicle id="7" type="passenger" depart="4.20">
        <route edges="B2A2.80.00 A2A1 A2A1.80.00 A1B1 A1B1.80.00 B1C1 B1C1.80.00 C1C2"/>
    </vehicle>
    <vehicle id="8" type="passenger" depart="4.20">
        <route edges="C1C0 C1C0.80.00 C0B0 C0B0.80.00 B0B1 B0B1.80.00 B1B2 B1B2.80.00 B2C2 B2C2.80.00 C2C1 C2C1.80.00 C1B1 C1B1.80.00"/>
    </vehicle>
    <vehicle id="9" type="passenger" depart="4.80">
        <route edges="bottom0A0.80.00 A0A1 A0A1.80.00 A1A2 A1A2.80.00 A2top0"/>
    </vehicle>
    <vehicle id="11" type="passenger" depart="5.40">
        <route edges="right0C0 right0C0.80.00 C0B0 C0B0.80.00 B0A0 B0A0.80.00 A0bottom0"/>
    </vehicle>
    <vehicle id="12" type="passenger" depart="6.60">
        <route edges="right2C2.80.00 C2C1 C2C1.80.00 C1B1 C1B1.80.00 B1A1 B1A1.80.00"/>
    </vehicle>
    <vehicle id="13" type="passenger" depart="9.40">
        <route edges="C1C0.80.00 C0B0 C0B0.80.00 B0A0 B0A0.80.00 A0left0"/>
    </vehicle>
    <vehicle id="14" type="passenger" depart="12.00">
        <route edges="right0C0 right0C0.80.00 C0B0 C0B0.80.00 B0B1 B0B1.80.00 B1B2 B1B2.80.00 B2A2 B2A2.80.00 A2A1 A2A1.80.00"/>
    </vehicle>
    <vehicle id="15" type="passenger" depart="13.20">
        <route edges="A0B0.80.00"/>
    </vehicle>
    <vehicle id="16" type="passenger" depart="14.00">
        <route edges="B1B2 B1B2.80.00 B2C2 B2C2.80.00 C2C1 C2C1.80.00 C1B1 C1B1.80.00"/>
    </vehicle>
    <vehicle id="18" type="passenger" depart="14.60">
        <route edges="A0A1 A0A1.80.00 A1B1 A1B1.80.00 B1B0 B1B0.80.00 B0bottom1"/>
    </vehicle>
    <vehicle id="19" type="passenger" depart="15.20">
        <route edges="C0C1 C0C1.80.00 C1B1 C1B1.80.00 B1B2"/>
    </vehicle>
    <vehicle id="20" type="passenger" depart="16.20">
        <route edges="top0A2 top0A2.80.00 A2B2 A2B2.80.00 B2C2 B2C2.80.00 C2C1 C2C1.80.00 C1B1 C1B1.80.00"/>
    </vehicle>
    <vehicle id="21" type="passenger" depart="16.20">
        <route edges="B1B2 B1B2.80.00 B2C2 B2C2.80.00 C2right2"/>
    </vehicle>
    <vehicle id="22" type="passenger" depart="16.20">
        <route edges="C1B1.80.00 B1B0 B1B0.80.00 B0A0 B0A0.80.00 A0left0"/>
    </vehicle>
    <vehicle id="24" type="passenger" depart="18.20">
        <route edges="bottom1B0.80.00 B0A0 B0A0.80.00 A0A1 A0A1.80.00 A1A2 A1A2.80.00"/>
    </vehicle>
    <vehicle id="26" type="passenger" depart="19.40">
        <route edges="left0A0.80.00 A0A1 A0A1.80.00 A1B1 A1B1.80.00 B1C1 B1C1.80.00 C1C0"/>
    </vehicle>
    <vehicle id="27" type="passenger" depart="20.60">
        <route edges="C1B1.80.00 B1A1 B1A1.80.00 A1A0 A1A0.80.00 A0B0 A0B0.80.00"/>
    </vehicle>
    <vehicle id="28" type="passenger" depart="20.60">
        <route edges="B2B1.80.00 B1C1 B1C1.80.00 C1C2 C1C2.80.00 C2B2 C2B2.80.00 B2A2"/>
    </vehicle>
    <vehicle id="29" type="passenger" depart="21.60">
        <route edges="B1B0 B1B0.80.00 B0C0 B0C0.80.00 C0C1 C0C1.80.00 C1B1 C1B1.80.00 B1A1"/>
    </vehicle>
    <vehicle id="30" type="passenger" depart="21.80">
        <route edges="B1C1.80.00 C1C0 C1C0.80.00 C0B0 C0B0.80.00 B0A0 B0A0.80.00 A0A1 A0A1.80.00 A1A2 A1A2.80.00"/>
    </vehicle>
    <vehicle id="31" type="passenger" depart="22.40">
        <route edges="left0A0 left0A0.80.00 A0A1 A0A1.80.00 A1B1 A1B1.80.00 B1C1"/>
    </vehicle>
    <vehicle id="32" type="passenger" depart="22.80">
        <route edges="B2C2.80.00 C2C1 C2C1.80.00 C1B1 C1B1.80.00 B1B0 B1B0.80.00 B0C0 B0C0.80.00 C0C1"/>
    </vehicle>
    <vehicle id="33" type="passenger" depart="23.60">
        <route edges="C2B2.80.00 B2B1 B2B1.80.00 B1C1 B1C1.80.00 C1C2 C1C2.80.00 C2B2"/>
    </vehicle>
    <vehicle id="35" type="passenger" depart="25.00">
        <route edges="B0C0.80.00 C0C1"/>
    </vehicle>
    <vehicle id="36" type="passenger" depart="25.40">
        <route edges="C0C1 C0C1.80.00 C1B1 C1B1.80.00 B1A1 B1A1.80.00 A1A0"/>
    </vehicle>
    <vehicle id="37" type="passenger" depart="25.60">
        <route edges="C1C0"/>
    </vehicle>
    <vehicle id="38" type="passenger" depart="25.80">
        <route edges="top1B2.80.00 B2A2 B2A2.80.00 A2A1 A2A1.80.00 A1B1"/>
    </vehicle>
    <vehicle id="39" type="passenger" depart="25.80">
        <route edges="C0C1.80.00 C1B1 C1B1.80.00 B1A1 B1A1.80.00 A1A2 A1A2.80.00 A2B2"/>
    </vehicle>
    <vehicle id="40" type="passenger" depart="26.00">
        <route edges="bottom2C0.80.00 C0B0 C0B0.80.00 B0A0 B0A0.80.00 A0A1 A0A1.80.00 A1A2 A1A2.80.00 A2B2 A2B2.80.00"/>
    </vehicle>
    <vehicle id="41" type="passenger" depart="26.60">
        <route edges="left2A2.80.00 A2top0"/>
    </vehicle>
    <vehicle id="42" type="passenger" depart="26.60">
        <route edges="C2C1.80.00 C1C0 C1C0.80.00"/>
    </vehicle>
    <vehicle id="43" type="passenger" depart="26.80">
        <route edges="A1A0 A1A0.80.00 A0B0 A0B0.80.00 B0B1 B0B1.80.00"/>
    </vehicle>
    <vehicle id="44" type="passenger" depart="27.00">
        <route edges="B1A1 B1A1.80.00 A1A0 A1A0.80.00 A0B0 A0B0.80.00 B0B1 B0B1.80.00"/>
    </vehicle>
    <vehicle id="45" type="passenger" depart="27.00">
        <route edges="B2B1.80.00 B1A1 B1A1.80.00 A1A2 A1A2.80.00 A2B2 A2B2.80.00 B2top1"/>
    </vehicle>
    <vehicle id="46" type="passenger" depart="27.40">
        <route edges="right1C1.80.00 C1B1 C1B1.80.00 B1A1 B1A1.80.00 A1A2 A1A2.80.00 A2left2"/>
    </vehicle>
    <vehicle id="47" type="passenger" depart="27.80">
        <route edges="B0C0 B0C0.80.00 C0bottom2"/>
    </vehicle>
    <vehicle id="48" type="passenger" depart="27.80">
        <route edges="left0A0 left0A0.80.00 A0A1 A0A1.80.00 A1B1 A1B1.80.00 B1C1"/>
    </vehicle>
    <vehicle id="49" type="passenger" depart="29.20">
        <route edges="left2A2.80.00 A2A1 A2A1.80.00 A1B1 A1B1.80.00"/>
    </vehicle>
    <vehicle id="52" type="passenger" depart="30.40">
        <route edges="B2C2 B2C2.80.00 C2C1 C2C1.80.00 C1C0 C1C0.80.00 C0B0 C0B0.80.00 B0B1 B0B1.80.00 B1C1 B1C1.80.00 C1C2 C1C2.80.00 C2B2"/>
    </vehicle>
    <vehicle id="53" type="passenger" depart="32.40">
        <route edges="B1C1 B1C1.80.00 C1C2 C1C2.80.00 C2B2 C2B2.80.00 B2A2 B2A2.80.00"/>
    </vehicle>
    <vehicle id="54" type="passenger" depart="32.60">
        <route edges="left0A0 left0A0.80.00 A0B0 A0B0.80.00 B0B1 B0B1.80.00"/>
    </vehicle>
    <vehicle id="55" type="passenger" depart="34.20">
        <route edges="C0B0.80.00 B0B1 B0B1.80.00 B1C1"/>
    </vehicle>
    <vehicle id="56" type="passenger" depart="35.60">
        <route edges="B2C2 B2C2.80.00 C2C1 C2C1.80.00 C1B1 C1B1.80.00 B1B2 B1B2.80.00 B2A2 B2A2.80.00 A2A1"/>
    </vehicle>
    <vehicle id="57" type="passenger" depart="36.60">
        <route edges="C1B1 C1B1.80.00 B1B2 B1B2.80.00 B2C2 B2C2.80.00 C2top2"/>
    </vehicle>
    <vehicle id="58" type="passenger" depart="38.40">
        <route edges="A1A0.80.00 A0B0 A0B0.80.00 B0B1 B0B1.80.00 B1B2 B1B2.80.00 B2A2 B2A2.80.00 A2A1"/>
    </vehicle>
    <vehicle id="59" type="passenger" depart="38.80">
        <route edges="C1C0 C1C0.80.00 C0B0 C0B0.80.00 B0B1 B0B1.80.00"/>
    </vehicle>
    <vehicle id="60" type="passenger" depart="39.20">
        <route edges="B2A2.80.00 A2A1 A2A1.80.00 A1B1 A1B1.80.00 B1B2 B1B2.80.00 B2C2 B2C2.80.00 C2C1 C2C1.80.00 C1B1"/>
    </vehicle>
    <vehicle id="61" type="passenger" depart="39.40">
        <route edges="A0B0.80.00 B0B1 B0B1.80.00 B1A1 B1A1.80.00 A1A0 A1A0.80.00 A0B0"/>
    </vehicle>
    <vehicle id="62" type="passenger" depart="39.80">
        <route edges="B1B0 B1B0.80.00 B0A0 B0A0.80.00 A0A1 A0A1.80.00 A1B1 A1B1.80.00 B1B2 B1B2.80.00 B2A2 B2A2.80.00"/>
    </vehicle>
    <vehicle id="63" type="passenger" depart="39.80">
        <route edges="C0B0.80.00 B0A0 B0A0.80.00 A0left0"/>
    </vehicle>
    <vehicle id="64" type="passenger" depart="40.00">
        <route edges="C0C1 C0C1.80.00 C1C2 C1C2.80.00 C2B2 C2B2.80.00 B2A2"/>
    </vehicle>
    <vehicle id="65" type="passenger" depart="41.20">
        <route edges="C2C1.80.00 C1B1 C1B1.80.00 B1A1 B1A1.80.00 A1A2 A1A2.80.00 A2B2 A2B2.80.00 B2B1"/>
    </vehicle>
    <vehicle id="66" type="passenger" depart="42.00">
        <route edges="left1A1.80.00 A1A2 A1A2.80.00 A2B2 A2B2.80.00 B2B1 B2B1.80.00 B1A1 B1A1.80.00"/>
    </vehicle>
    <vehicle id="67" type="passenger" depart="42.20">
        <route edges="top1B2 top1B2.80.00 B2C2 B2C2.80.00"/>
    </vehicle>
    <vehicle id="69" type="passenger" depart="42.40">
        <route edges="A2B2 A2B2.80.00 B2B1 B2B1.80.00 B1B0"/>
    </vehicle>
    <vehicle id="70" type="passenger" depart="43.20">
        <route edges="A2B2.80.00 B2top1"/>
    </vehicle>
    <vehicle id="71" type="passenger" depart="43.60">
        <route edges="B1B2.80.00 B2A2 B2A2.80.00 A2A1 A2A1.80.00"/>
    </vehicle>
    <vehicle id="73" type="passenger" depart="44.60">
        <route edges="left1A1 left1A1.80.00 A1B1 A1B1.80.00 B1B2"/>
    </vehicle>
    <vehicle id="74" type="passenger" depart="45.40">
        <route edges="B1B0.80.00 B0C0 B0C0.80.00 C0C1 C0C1.80.00 C1B1 C1B1.80.00 B1A1 B1A1.80.00"/>
    </vehicle>
    <vehicle id="75" type="passenger" depart="45.60">
        <route edges="top0A2 top0A2.80.00 A2A1 A2A1.80.00 A1B1 A1B1.80.00 B1C1"/>
    </vehicle>
    <vehicle id="76" type="passenger" depart="46.20">
        <route edges="left1A1.80.00 A1A2 A1A2.80.00 A2B2 A2B2.80.00 B2C2 B2C2.80.00 C2C1 C2C1.80.00 C1B1 C1B1.80.00"/>
    </vehicle>
    <vehicle id="78" type="passenger" depart="46.40">
        <route edges="bottom0A0.80.00 A0B0 A0B0.80.00 B0B1 B0B1.80.00 B1B2 B1B2.80.00 B2A2"/>
    </vehicle>
    <vehicle id="79" type="passenger" depart="46.80">
        <route edges="A0B0 A0B0.80.00 B0B1 B0B1.80.00 B1B2 B1B2.80.00 B2A2 B2A2.80.00"/>
    </vehicle>
    <vehicle id="81" type="passenger" depart="47.00">
        <route edges="top2C2 top2C2.80.00 C2B2 C2B2.80.00 B2B1 B2B1.80.00"/>
    </vehicle>
    <vehicle id="82" type="passenger" depart="47.60">
        <route edges="C1C0 C1C0.80.00 C0B0 C0B0.80.00 B0B1 B0B1.80.00 B1B2 B1B2.80.00 B2C2 B2C2.80.00 C2C1 C2C1.80.00"/>
    </vehicle>
    <vehicle id="83" type="passenger" depart="47.80">
        <route edges="B1C1.80.00 C1C2 C1C2.80.00 C2B2 C2B2.80.00 B2B1 B2B1.80.00 B1B0 B1B0.80.00 B0C0"/>
    </vehicle>
    <vehicle id="85" type="passenger" depart="49.00">
        <route edges="C0C1 C0C1.80.00 C1B1 C1B1.80.00 B1B0 B1B0.80.00 B0A0"/>
    </vehicle>
    <vehicle id="86" type="passenger" depart="49.20">
        <route edges="B1B2 B1B2.80.00 B2A2 B2A2.80.00 A2A1 A2A1.80.00"/>
    </vehicle>
    <vehicle id="89" type="passenger" depart="50.40">
        <route edges="B1A1.80.00 A1A2 A1A2.80.00 A2left2"/>
    </vehicle>
    <vehicle id="90" type="passenger" depart="50.80">
        <route edges="A1B1.80.00 B1C1 B1C1.80.00 C1C2 C1C2.80.00 C2top2"/>
    </vehicle>
    <vehicle id="91" type="passenger" depart="51.00">
        <route edges="bottom1B0.80.00 B0B1 B0B1.80.00 B1C1 B1C1.80.00 C1C0 C1C0.80.00 C0B0 C0B0.80.00"/>
    </vehicle>
    <vehicle id="92" type="passenger" depart="51.00">
        <route edges="left2A2.80.00 A2B2 A2B2.80.00 B2C2 B2C2.80.00 C2C1 C2C1.80.00 C1B1"/>
    </vehicle>
    <vehicle id="93" type="passenger" depart="51.60">
        <route edges="C1B1.80.00 B1A1 B1A1.80.00 A1A0"/>
    </vehicle>
    <vehicle id="94" type="passenger" depart="51.80">
        <route edges="left0A0 left0A0.80.00 A0B0 A0B0.80.00 B0B1 B0B1.80.00 B1A1 B1A1.80.00 A1A0"/>
    </vehicle>
    <vehicle id="95" type="passenger" depart="51.80">
        <route edges="B1B2 B1B2.80.00 B2C2 B2C2.80.00 C2C1 C2C1.80.00 C1B1 C1B1.80.00"/>
    </vehicle>
    <vehicle id="96" type="passenger" depart="52.00">
        <route edges="A2A1.80.00 A1B1 A1B1.80.00 B1B0 B1B0.80.00 B0A0 B0A0.80.00 A0A1 A0A1.80.00"/>
    </vehicle>
    <vehicle id="98" type="passenger" depart="52.60">
        <route edges="C1C2 C1C2.80.00 C2B2 C2B2.80.00 B2B1 B2B1.80.00 B1A1"/>
    </vehicle>
    <vehicle id="99" type="passenger" depart="52.60">
        <route edges="B2B1 B2B1.80.00 B1C1"/>
    </vehicle>
    <vehicle id="100" type="passenger" depart="52.80">
        <route edges="right2C2.80.00 C2B2 C2B2.80.00 B2A2 B2A2.80.00 A2top0"/>
    </vehicle>
    <vehicle id="101" type="passenger" depart="53.40">
        <route edges="C0C1 C0C1.80.00 C1C2 C1C2.80.00 C2B2 C2B2.80.00 B2A2 B2A2.80.00 A2left2"/>
    </vehicle>
    <vehicle id="102" type="passenger" depart="54.20">
        <route edges="C1C0 C1C0.80.00 C0B0 C0B0.80.00 B0A0 B0A0.80.00 A0A1"/>
    </vehicle>
    <vehicle id="104" type="passenger" depart="54.60">
        <route edges="right1C1 right1C1.80.00 C1C0 C1C0.80.00 C0B0"/>
    </vehicle>
    <vehicle id="105" type="passenger" depart="54.80">
        <route edges="B0A0 B0A0.80.00 A0A1 A0A1.80.00 A1B1 A1B1.80.00 B1B0"/>
    </vehicle>
    <vehicle id="106" type="passenger" depart="55.80">
        <route edges="B0B1.80.00 B1A1 B1A1.80.00 A1A2"/>
    </vehicle>
    <vehicle id="107" type="passenger" depart="56.00">
        <route edges="C2C1.80.00 C1C0 C1C0.80.00 C0B0 C0B0.80.00 B0A0 B0A0.80.00"/>
    </vehicle>
    <vehicle id="108" type="passenger" depart="58.00">
        <route edges="C0B0 C0B0.80.00 B0B1 B0B1.80.00 B1A1 B1A1.80.00 A1A0 A1A0.80.00 A0B0"/>
    </vehicle>
    <vehicle id="109" type="passenger" depart="58.60">
        <route edges="B0C0.80.00 C0C1 C0C1.80.00 C1B1 C1B1.80.00 B1B2"/>
    </vehicle>
    <vehicle id="110" type="passenger" depart="60.60">
        <route edges="C0C1 C0C1.80.00 C1B1 C1B1.80.00 B1A1 B1A1.80.00 A1A0 A1A0.80.00 A0B0"/>
    </vehicle>
    <vehicle id="111" type="passenger" depart="60.80">
        <route edges="C0C1.80.00 C1B1 C1B1.80.00 B1A1 B1A1.80.00 A1A0 A1A0.80.00 A0B0 A0B0.80.00"/>
    </vehicle>
    <vehicle id="112" type="passenger" depart="63.20">
        <route edges="right0C0.80.00 C0B0 C0B0.80.00 B0A0 B0A0.80.00 A0A1 A0A1.80.00 A1A2 A1A2.80.00 A2top0"/>
    </vehicle>
    <vehicle id="113" type="passenger" depart="63.40">
        <route edges="B1B0.80.00 B0A0 B0A0.80.00 A0A1 A0A1.80.00 A1A2 A1A2.80.00 A2B2 A2B2.80.00 B2C2 B2C2.80.00 C2C1"/>
    </vehicle>
    <vehicle id="114" type="passenger" depart="63.80">
        <route edges="A2B2.80.00 B2C2 B2C2.80.00 C2C1 C2C1.80.00 C1C0 C1C0.80.00 C0B0 C0B0.80.00"/>
    </vehicle>
    <vehicle id="116" type="passenger" depart="64.60">
        <route edges="top1B2.80.00 B2B1 B2B1.80.00 B1B0 B1B0.80.00 B0C0 B0C0.80.00 C0right0"/>
    </vehicle>
    <vehicle id="117" type="passenger" depart="66.00">
        <route edges="C0C1.80.00 C1B1 C1B1.80.00"/>
    </vehicle>
    <vehicle id="119" type="passenger" depart="66.60">
        <route edges="A0B0.80.00 B0B1 B0B1.80.00 B1A1"/>
    </vehicle>
    <vehicle id="120" type="passenger" depart="67.40">
        <route edges="A0A1 A0A1.80.00 A1left1"/>
    </vehicle>
    <vehicle id="121" type="passenger" depart="67.80">
        <route edges="A2B2 A2B2.80.00 B2B1 B2B1.80.00 B1C1 B1C1.80.00 C1C2 C1C2.80.00"/>
    </vehicle>
    <vehicle id="122" type="passenger" depart="68.00">
        <route edges="B1C1.80.00 C1C0 C1C0.80.00 C0B0 C0B0.80.00 B0A0 B0A0.80.00 A0A1 A0A1.80.00 A1A2 A1A2.80.00"/>
    </vehicle>
    <vehicle id="123" type="passenger" depart="68.80">
        <route edges="left2A2.80.00 A2B2 A2B2.80.00 B2B1 B2B1.80.00 B1B0 B1B0.80.00 B0A0 B0A0.80.00 A0A1 A0A1.80.00"/>
    </vehicle>
    <vehicle id="124" type="passenger" depart="69.20">
        <route edges="B0A0.80.00 A0A1 A0A1.80.00 A1A2 A1A2.80.00 A2left2"/>
    </vehicle>
    <vehicle id="125" type="passenger" depart="70.80">
        <route edges="A1A2.80.00 A2B2 A2B2.80.00 B2B1 B2B1.80.00 B1C1 B1C1.80.00 C1C2 C1C2.80.00 C2B2 C2B2.80.00"/>
    </vehicle>
    <vehicle id="126" type="passenger" depart="72.20">
        <route edges="top0A2.80.00 A2left2"/>
    </vehicle>
    <vehicle id="127" type="passenger" depart="73.40">
        <route edges="A1B1 A1B1.80.00 B1C1 B1C1.80.00 C1C2 C1C2.80.00"/>
    </vehicle>
    <vehicle id="128" type="passenger" depart="75.80">
        <route edges="top2C2 top2C2.80.00 C2C1 C2C1.80.00 C1B1 C1B1.80.00 B1A1 B1A1.80.00 A1A0"/>
    </vehicle>
    <vehicle id="130" type="passenger" depart="79.80">
        <route edges="bottom2C0.80.00 C0right0"/>
    </vehicle>
    <vehicle id="131" type="passenger" depart="80.60">
        <route edges="bottom0A0 bottom0A0.80.00 A0A1 A0A1.80.00 A1A2 A1A2.80.00 A2B2"/>
    </vehicle>
    <vehicle id="132" type="passenger" depart="81.20">
        <route edges="left2A2.80.00 A2A1 A2A1.80.00 A1A0 A1A0.80.00 A0bottom0"/>
    </vehicle>
    <vehicle id="133" type="passenger" depart="81.40">
        <route edges="B0A0 B0A0.80.00 A0A1 A0A1.80.00 A1A2 A1A2.80.00 A2B2 A2B2.80.00"/>
    </vehicle>
    <vehicle id="134" type="passenger" depart="82.20">
        <route edges="A0A1.80.00 A1B1 A1B1.80.00 B1C1 B1C1.80.00 C1C2"/>
    </vehicle>
    <vehicle id="135" type="passenger" depart="85.00">
        <route edges="left0A0.80.00 A0B0 A0B0.80.00 B0C0 B0C0.80.00 C0C1 C0C1.80.00 C1B1 C1B1.80.00"/>
    </vehicle>
    <vehicle id="136" type="passenger" depart="85.00">
        <route edges="A1B1 A1B1.80.00 B1C1 B1C1.80.00 C1C0 C1C0.80.00 C0B0 C0B0.80.00 B0B1"/>
    </vehicle>
    <vehicle id="137" type="passenger" depart="85.60">
        <route edges="C1C0.80.00 C0B0 C0B0.80.00 B0A0 B0A0.80.00 A0A1 A0A1.80.00 A1B1"/>
    </vehicle>
    <vehicle id="138" type="passenger" depart="86.20">
        <route edges="C2B2.80.00 B2B1 B2B1.80.00 B1A1 B1A1.80.00 A1A2 A1A2.80.00 A2B2 A2B2.80.00"/>
    </vehicle>
    <vehicle id="139" type="passenger" depart="86.40">
        <route edges="A2A1 A2A1.80.00 A1A0 A1A0.80.00 A0left0"/>
    </vehicle>
    <vehicle id="140" type="passenger" depart="88.20">
        <route edges="A0B0 A0B0.80.00 B0B1 B0B1.80.00 B1A1 B1A1.80.00 A1left1"/>
    </vehicle>
    <vehicle id="141" type="passenger" depart="88.60">
        <route edges="top1B2.80.00 B2A2 B2A2.80.00 A2top0"/>
    </vehicle>
    <vehicle id="142" type="passenger" depart="88.60">
        <route edges="bottom0A0.80.00 A0A1 A0A1.80.00 A1B1 A1B1.80.00 B1C1 B1C1.80.00 C1C2 C1C2.80.00"/>
    </vehicle>
    <vehicle id="143" type="passenger" depart="89.00">
        <route edges="left0A0.80.00 A0B0 A0B0.80.00"/>
    </vehicle>
    <vehicle id="144" type="passenger" depart="89.00">
        <route edges="C0B0 C0B0.80.00 B0B1 B0B1.80.00 B1B2 B1B2.80.00 B2C2 B2C2.80.00 C2C1"/>
    </vehicle>
    <vehicle id="145" type="passenger" depart="89.20">
        <route edges="B2B1.80.00 B1A1 B1A1.80.00 A1A2 A1A2.80.00 A2B2 A2B2.80.00 B2C2"/>
    </vehicle>
    <vehicle id="146" type="passenger" depart="89.80">
        <route edges="right1C1.80.00 C1B1 C1B1.80.00 B1B2 B1B2.80.00"/>
    </vehicle>
    <vehicle id="148" type="passenger" depart="90.80">
        <route edges="left1A1 left1A1.80.00 A1B1 A1B1.80.00 B1C1 B1C1.80.00 C1C2"/>
    </vehicle>
    <vehicle id="150" type="passenger" depart="92.00">
        <route edges="C1C0.80.00 C0B0"/>
    </vehicle>
    <vehicle id="151" type="passenger" depart="92.20">
        <route edges="left1A1 left1A1.80.00 A1A2 A1A2.80.00"/>
    </vehicle>
    <vehicle id="152" type="passenger" depart="92.40">
        <route edges="B2A2.80.00 A2A1 A2A1.80.00 A1A0 A1A0.80.00 A0left0"/>
    </vehicle>
    <vehicle id="153" type="passenger" depart="92.60">
        <route edges="C1C0.80.00 C0B0 C0B0.80.00 B0B1 B0B1.80.00 B1B2 B1B2.80.00 B2A2 B2A2.80.00 A2A1"/>
    </vehicle>
    <vehicle id="154" type="passenger" depart="92.80">
        <route edges="A0B0 A0B0.80.00 B0B1 B0B1.80.00 B1B2 B1B2.80.00 B2A2 B2A2.80.00 A2A1 A2A1.80.00 A1B1"/>
    </vehicle>
    <vehicle id="155" type="passenger" depart="92.80">
        <route edges="top2C2.80.00 C2B2 C2B2.80.00 B2A2 B2A2.80.00 A2A1 A2A1.80.00"/>
    </vehicle>
    <vehicle id="156" type="passenger" depart="93.60">
        <route edges="C2C1 C2C1.80.00 C1right1"/>
    </vehicle>
    <vehicle id="158" type="passenger" depart="95.20">
        <route edges="B1C1 B1C1.80.00 C1C2 C1C2.80.00 C2top2"/>
    </vehicle>
    <vehicle id="159" type="passenger" depart="95.60">
        <route edges="A1A0.80.00 A0left0"/>
    </vehicle>
    <vehicle id="160" type="passenger" depart="98.20">
        <route edges="C0C1 C0C1.80.00 C1B1 C1B1.80.00 B1A1 B1A1.80.00 A1A0 A1A0.80.00"/>
    </vehicle>
    <vehicle id="161" type="passenger" depart="99.00">
        <route edges="A1A0 A1A0.80.00 A0B0 A0B0.80.00 B0B1 B0B1.80.00 B1A1 B1A1.80.00 A1A2 A1A2.80.00 A2B2 A2B2.80.00 B2B1 B2B1.80.00"/>
    </vehicle>
    <vehicle id="162" type="passenger" depart="99.40">
        <route edges="B1A1.80.00 A1A2 A1A2.80.00 A2B2 A2B2.80.00 B2C2 B2C2.80.00 C2C1 C2C1.80.00 C1right1"/>
    </vehicle>
    <vehicle id="164" type="passenger" depart="101.60">
        <route edges="C0B0 C0B0.80.00 B0A0 B0A0.80.00 A0A1 A0A1.80.00 A1A2 A1A2.80.00 A2B2 A2B2.80.00"/>
    </vehicle>
    <vehicle id="165" type="passenger" depart="101.60">
        <route edges="left2A2.80.00 A2B2 A2B2.80.00 B2B1 B2B1.80.00 B1B0 B1B0.80.00 B0bottom1"/>
    </vehicle>
    <vehicle id="166" type="passenger" depart="101.80">
        <route edges="B0C0.80.00 C0C1 C0C1.80.00 C1B1 C1B1.80.00 B1A1 B1A1.80.00 A1A2 A1A2.80.00"/>
    </vehicle>
    <vehicle id="167" type="passenger" depart="104.40">
        <route edges="B0A0.80.00"/>
    </vehicle>
    <vehicle id="168" type="passenger" depart="106.00">
        <route edges="A1A2.80.00 A2B2 A2B2.80.00 B2C2 B2C2.80.00 C2C1 C2C1.80.00 C1C0 C1C0.80.00"/>
    </vehicle>
    <vehicle id="170" type="passenger" depart="106.40">
        <route edges="B2C2.80.00 C2C1 C2C1.80.00 C1B1 C1B1.80.00 B1B0 B1B0.80.00 B0C0 B0C0.80.00 C0C1"/>
    </vehicle>
    <vehicle id="171" type="passenger" depart="106.40">
        <route edges="C0B0 C0B0.80.00 B0B1 B0B1.80.00 B1B2 B1B2.80.00 B2C2 B2C2.80.00 C2C1"/>
    </vehicle>
    <vehicle id="172" type="passenger" depart="106.60">
        <route edges="A2B2 A2B2.80.00 B2B1 B2B1.80.00 B1B0 B1B0.80.00"/>
    </vehicle>
    <vehicle id="173" type="passenger" depart="107.00">
        <route edges="C0B0 C0B0.80.00 B0B1 B0B1.80.00 B1B2 B1B2.80.00 B2C2 B2C2.80.00 C2C1 C2C1.80.00 C1B1 C1B1.80.00"/>
    </vehicle>
    <vehicle id="175" type="passenger" depart="107.40">
        <route edges="B0C0 B0C0.80.00 C0C1 C0C1.80.00 C1B1 C1B1.80.00 B1B2 B1B2.80.00 B2top1"/>
    </vehicle>
    <vehicle id="176" type="passenger" depart="107.60">
        <route edges="B1B2.80.00 B2C2 B2C2.80.00 C2C1 C2C1.80.00 C1B1 C1B1.80.00 B1A1"/>
    </vehicle>
    <vehicle id="177" type="passenger" depart="108.00">
        <route edges="bottom0A0.80.00 A0A1 A0A1.80.00 A1B1 A1B1.80.00 B1C1 B1C1.80.00 C1C2 C1C2.80.00"/>
    </vehicle>
    <vehicle id="178" type="passenger" depart="109.20">
        <route edges="B1B0"/>
    </vehicle>
    <vehicle id="179" type="passenger" depart="109.20">
        <route edges="C1C0 C1C0.80.00 C0B0 C0B0.80.00 B0A0 B0A0.80.00 A0A1 A0A1.80.00 A1A2 A1A2.80.00 A2B2 A2B2.80.00 B2B1"/>
    </vehicle>
    <vehicle id="181" type="passenger" depart="111.20">
        <route edges="A1A0 A1A0.80.00 A0B0 A0B0.80.00 B0B1 B0B1.80.00 B1A1 B1A1.80.00 A1A2 A1A2.80.00 A2B2 A2B2.80.00"/>
    </vehicle>
    <vehicle id="182" type="passenger" depart="112.00">
        <route edges="B2B1 B2B1.80.00 B1A1 B1A1.80.00"/>
    </vehicle>
    <vehicle id="183" type="passenger" depart="112.20">
        <route edges="B2B1.80.00 B1C1 B1C1.80.00 C1C0 C1C0.80.00 C0B0 C0B0.80.00 B0B1"/>
    </vehicle>
    <vehicle id="184" type="passenger" depart="113.80">
        <route edges="A1B1 A1B1.80.00 B1B0 B1B0.80.00 B0A0 B0A0.80.00 A0A1"/>
    </vehicle>
    <vehicle id="185" type="passenger" depart="114.00">
        <route edges="top2C2 top2C2.80.00 C2C1 C2C1.80.00 C1B1 C1B1.80.00 B1B0 B1B0.80.00 B0C0"/>
    </vehicle>
    <vehicle id="188" type="passenger" depart="115.40">
        <route edges="A1B1 A1B1.80.00 B1B0 B1B0.80.00 B0bottom1"/>
    </vehicle>
    <vehicle id="189" type="passenger" depart="115.40">
        <route edges="C2C1 C2C1.80.00 C1B1 C1B1.80.00 B1B2 B1B2.80.00 B2A2 B2A2.80.00 A2A1"/>
    </vehicle>
    <vehicle id="190" type="passenger" depart="115.60">
        <route edges="right2C2.80.00 C2B2 C2B2.80.00 B2B1 B2B1.80.00 B1B0 B1B0.80.00 B0bottom1"/>
    </vehicle>
    <vehicle id="192" type="passenger" depart="116.80">
        <route edges="left0A0.80.00 A0B0 A0B0.80.00 B0B1 B0B1.80.00 B1B2 B1B2.80.00 B2A2 B2A2.80.00"/>
    </vehicle>
    <vehicle id="193" type="passenger" depart="117.00">
        <route edges="B0C0.80.00 C0C1 C0C1.80.00 C1B1 C1B1.80.00 B1B0 B1B0.80.00 B0A0"/>
    </vehicle>
    <vehicle id="194" type="passenger" depart="117.00">
        <route edges="A1A2 A1A2.80.00 A2B2 A2B2.80.00 B2C2 B2C2.80.00 C2C1 C2C1.80.00 C1C0 C1C0.80.00 C0B0 C0B0.80.00 B0B1"/>
    </vehicle>
    <vehicle id="195" type="passenger" depart="117.00">
        <route edges="A1A0 A1A0.80.00 A0B0 A0B0.80.00 B0B1 B0B1.80.00 B1B2 B1B2.80.00"/>
    </vehicle>
    <vehicle id="196" type="passenger" depart="118.40">
        <route edges="B2A2.80.00 A2A1 A2A1.80.00 A1B1 A1B1.80.00 B1C1 B1C1.80.00 C1C0 C1C0.80.00"/>
    </vehicle>
    <vehicle id="197" type="passenger" depart="119.00">
        <route edges="C0C1.80.00 C1B1 C1B1.80.00 B1B0 B1B0.80.00 B0C0 B0C0.80.00"/>
    </vehicle>
    <vehicle id="202" type="passenger" depart="123.00">
        <route edges="bottom0A0 bottom0A0.80.00 A0left0"/>
    </vehicle>
    <vehicle id="203" type="passenger" depart="123.00">
        <route edges="left1A1 left1A1.80.00"/>
    </vehicle>
    <vehicle id="205" type="passenger" depart="123.40">
        <route edges="B1A1.80.00 A1A0 A1A0.80.00 A0B0 A0B0.80.00 B0C0 B0C0.80.00"/>
    </vehicle>
    <vehicle id="207" type="passenger" depart="124.80">
        <route edges="A0A1 A0A1.80.00 A1A2 A1A2.80.00 A2B2 A2B2.80.00"/>
    </vehicle>
    <vehicle id="208" type="passenger" depart="125.60">
        <route edges="A1A0.80.00 A0B0 A0B0.80.00 B0B1 B0B1.80.00 B1C1 B1C1.80.00 C1C0 C1C0.80.00 C0B0"/>
    </vehicle>
    <vehicle id="209" type="passenger" depart="126.20">
        <route edges="B1B2 B1B2.80.00 B2A2 B2A2.80.00 A2A1 A2A1.80.00 A1B1 A1B1.80.00 B1C1 B1C1.80.00 C1C2 C1C2.80.00"/>
    </vehicle>
    <vehicle id="210" type="passenger" depart="126.40">
        <route edges="B2B1 B2B1.80.00 B1C1 B1C1.80.00 C1right1"/>
    </vehicle>
    <vehicle id="211" type="passenger" depart="128.60">
        <route edges="top1B2 top1B2.80.00 B2B1 B2B1.80.00 B1A1 B1A1.80.00 A1left1"/>
    </vehicle>
    <vehicle id="212" type="passenger" depart="129.00">
        <route edges="A0B0.80.00 B0bottom1"/>
    </vehicle>
    <vehicle id="213" type="passenger" depart="130.00">
        <route edges="bottom0A0 bottom0A0.80.00 A0A1 A0A1.80.00 A1B1 A1B1.80.00"/>
    </vehicle>
    <vehicle id="214" type="passenger" depart="131.40">
        <route edges="A2B2 A2B2.80.00 B2B1 B2B1.80.00 B1A1 B1A1.80.00 A1A2 A1A2.80.00 A2top0"/>
    </vehicle>
    <vehicle id="215" type="passenger" depart="131.80">
        <route edges="A1B1 A1B1.80.00 B1C1"/>
    </vehicle>
    <vehicle id="216" type="passenger" depart="132.00">
        <route edges="B1B0.80.00 B0C0 B0C0.80.00"/>
    </vehicle>
    <vehicle id="217" type="passenger" depart="133.60">