<?xml version="1.0" encoding="UTF-8"?>

<!-- generated on 2023-04-26 16:56:40.729170 by randomTrips.py UNKNOWN
<configuration>
    <begin value="0"/>
    <end value="900"/>
    <insertion-rate value="8000.0"/>
    <net-file value="/home/franky3er/Documents/code/HieraGLight/scenarios/grid/1x1-500m/train/16-scenario/network.net.xml"/>
    <random value="True"/>
    <random-depart value="True"/>
    <route-file value="/home/franky3er/Documents/code/HieraGLight/scenarios/grid/1x1-500m/train/16-scenario/routes.rou.xml"/>
    <seed value="16"/>
    <output-trip-file value="/home/franky3er/Documents/code/HieraGLight/scenarios/grid/1x1-500m/train/16-scenario/trips.trips.xml"/>
    <vehicle-class value="passenger"/>
</configuration>
-->

<!-- generated on 2023-04-26 16:56:40 by Eclipse SUMO duarouter Version 1.16.0
<configuration xmlns:xsi="http://www.w3.org/2001/XMLSchema-instance" xsi:noNamespaceSchemaLocation="http://sumo.dlr.de/xsd/duarouterConfiguration.xsd">

    <input>
        <net-file value="/home/franky3er/Documents/code/HieraGLight/scenarios/grid/1x1-500m/train/16-scenario/network.net.xml"/>
        <route-files value="/home/franky3er/Documents/code/HieraGLight/scenarios/grid/1x1-500m/train/16-scenario/trips.trips.xml"/>
    </input>

    <output>
        <output-file value="/home/franky3er/Documents/code/HieraGLight/scenarios/grid/1x1-500m/train/16-scenario/routes.rou.xml"/>
        <alternatives-output value="NUL"/>
    </output>

    <time>
        <begin value="0"/>
        <end value="900"/>
    </time>

    <report>
        <no-warnings value="true"/>
        <ignore-errors value="true"/>
        <no-step-log value="true"/>
    </report>

</configuration>
-->

<routes xmlns:xsi="http://www.w3.org/2001/XMLSchema-instance" xsi:noNamespaceSchemaLocation="http://sumo.dlr.de/xsd/routes_file.xsd">
    <vType id="passenger" vClass="passenger"/>
    <vehicle id="0" type="passenger" depart="1.75">
        <route edges="left0A0 left0A0.250.00"/>
    </vehicle>
    <vehicle id="3" type="passenger" depart="1.95">
        <route edges="bottom0A0 bottom0A0.250.00 A0left0"/>
    </vehicle>
    <vehicle id="5" type="passenger" depart="2.55">
        <route edges="bottom0A0 bottom0A0.250.00 A0left0"/>
    </vehicle>
    <vehicle id="6" type="passenger" depart="3.00">
        <route edges="left0A0.250.00 A0bottom0"/>
    </vehicle>
    <vehicle id="8" type="passenger" depart="4.00">
        <route edges="top0A0 top0A0.250.00 A0left0"/>
    </vehicle>
    <vehicle id="9" type="passenger" depart="5.45">
        <route edges="right0A0.250.00 A0left0"/>
    </vehicle>
    <vehicle id="10" type="passenger" depart="5.75">
        <route edges="bottom0A0.250.00 A0top0"/>
    </vehicle>
    <vehicle id="11" type="passenger" depart="6.25">
        <route edges="bottom0A0 bottom0A0.250.00"/>
    </vehicle>
    <vehicle id="12" type="passenger" depart="6.30">
        <route edges="bottom0A0.250.00 A0top0"/>
    </vehicle>
    <vehicle id="13" type="passenger" depart="6.40">
        <route edges="top0A0.250.00"/>
    </vehicle>
    <vehicle id="16" type="passenger" depart="6.85">
        <route edges="bottom0A0.250.00 A0right0"/>
    </vehicle>
    <vehicle id="19" type="passenger" depart="8.30">
        <route edges="bottom0A0.250.00"/>
    </vehicle>
    <vehicle id="22" type="passenger" depart="9.85">
        <route edges="bottom0A0 bottom0A0.250.00 A0right0"/>
    </vehicle>
    <vehicle id="24" type="passenger" depart="10.35">
        <route edges="bottom0A0.250.00"/>
    </vehicle>
    <vehicle id="26" type="passenger" depart="11.80">
        <route edges="top0A0 top0A0.250.00 A0right0"/>
    </vehicle>
    <vehicle id="28" type="passenger" depart="12.50">
        <route edges="bottom0A0.250.00 A0right0"/>
    </vehicle>
    <vehicle id="29" type="passenger" depart="12.75">
        <route edges="left0A0 left0A0.250.00 A0right0"/>
    </vehicle>
    <vehicle id="36" type="passenger" depart="16.00">
        <route edges="top0A0 top0A0.250.00 A0left0"/>
    </vehicle>
    <vehicle id="39" type="passenger" depart="17.40">
        <route edges="right0A0.250.00"/>
    </vehicle>
    <vehicle id="41" type="passenger" depart="17.75">
        <route edges="top0A0.250.00 A0left0"/>
    </vehicle>
    <vehicle id="42" type="passenger" depart="18.05">
        <route edges="top0A0.250.00 A0right0"/>
    </vehicle>
    <vehicle id="45" type="passenger" depart="19.50">
        <route edges="top0A0.250.00 A0right0"/>
    </vehicle>
    <vehicle id="48" type="passenger" depart="20.80">
        <route edges="bottom0A0.250.00"/>
    </vehicle>
    <vehicle id="50" type="passenger" depart="21.05">
        <route edges="right0A0.250.00 A0bottom0"/>
    </vehicle>
    <vehicle id="53" type="passenger" depart="23.20">
        <route edges="top0A0 top0A0.250.00 A0bottom0"/>
    </vehicle>
    <vehicle id="54" type="passenger" depart="24.10">
        <route edges="top0A0.250.00"/>
    </vehicle>
    <vehicle id="56" type="passenger" depart="24.60">
        <route edges="left0A0.250.00 A0right0"/>
    </vehicle>
    <vehicle id="65" type="passenger" depart="29.10">
        <route edges="right0A0.250.00"/>
    </vehicle>
    <vehicle id="67" type="passenger" depart="29.85">
        <route edges="right0A0.250.00 A0bottom0"/>
    </vehicle>
    <vehicle id="70" type="passenger" depart="30.65">
        <route edges="bottom0A0 bottom0A0.250.00 A0left0"/>
    </vehicle>
    <vehicle id="71" type="passenger" depart="31.30">
        <route edges="bottom0A0.250.00 A0right0"/>
    </vehicle>
    <vehicle id="72" type="passenger" depart="31.85">
        <route edges="left0A0 left0A0.250.00 A0bottom0"/>
    </vehicle>
    <vehicle id="73" type="passenger" depart="31.85">
        <route edges="top0A0 top0A0.250.00 A0right0"/>
    </vehicle>
    <vehicle id="74" type="passenger" depart="32.55">
        <route edges="top0A0 top0A0.250.00 A0right0"/>
    </vehicle>
    <vehicle id="75" type="passenger" depart="33.00">
        <route edges="top0A0.250.00 A0left0"/>
    </vehicle>
    <vehicle id="76" type="passenger" depart="33.30">
        <route edges="top0A0 top0A0.250.00 A0left0"/>
    </vehicle>
    <vehicle id="77" type="passenger" depart="34.40">
        <route edges="left0A0.250.00 A0top0"/>
    </vehicle>
    <vehicle id="78" type="passenger" depart="35.90">
        <route edges="right0A0 right0A0.250.00"/>
    </vehicle>
    <vehicle id="83" type="passenger" depart="37.50">
        <route edges="top0A0.250.00"/>
    </vehicle>
    <vehicle id="84" type="passenger" depart="38.25">
        <route edges="left0A0.250.00 A0bottom0"/>
    </vehicle>
    <vehicle id="85" type="passenger" depart="38.45">
        <route edges="top0A0.250.00 A0right0"/>
    </vehicle>
    <vehicle id="86" type="passenger" depart="38.80">
        <route edges="left0A0.250.00 A0bottom0"/>
    </vehicle>
    <vehicle id="87" type="passenger" depart="38.85">
        <route edges="top0A0 top0A0.250.00"/>
    </vehicle>
    <vehicle id="89" type="passenger" depart="39.55">
        <route edges="bottom0A0.250.00 A0top0"/>
    </vehicle>
    <vehicle id="91" type="passenger" depart="39.70">
        <route edges="right0A0 right0A0.250.00 A0left0"/>
    </vehicle>
    <vehicle id="93" type="passenger" depart="40.35">
        <route edges="right0A0.250.00 A0bottom0"/>
    </vehicle>
    <vehicle id="95" type="passenger" depart="41.20">
        <route edges="left0A0 left0A0.250.00"/>
    </vehicle>
    <vehicle id="96" type="passenger" depart="41.95">
        <route edges="left0A0 left0A0.250.00"/>
    </vehicle>
    <vehicle id="99" type="passenger" depart="45.60">
        <route edges="left0A0.250.00 A0bottom0"/>
    </vehicle>
    <vehicle id="100" type="passenger" depart="46.95">
        <route edges="right0A0.250.00 A0left0"/>
    </vehicle>
    <vehicle id="105" type="passenger" depart="48.60">
        <route edges="right0A0 right0A0.250.00"/>
    </vehicle>
    <vehicle id="109" type="passenger" depart="49.05">
        <route edges="top0A0.250.00 A0right0"/>
    </vehicle>
    <vehicle id="110" type="passenger" depart="49.45">
        <route edges="bottom0A0 bottom0A0.250.00 A0right0"/>
    </vehicle>
    <vehicle id="114" type="passenger" depart="51.35">
        <route edges="top0A0 top0A0.250.00 A0left0"/>
    </vehicle>
    <vehicle id="115" type="passenger" depart="51.40">
        <route edges="top0A0 top0A0.250.00"/>
    </vehicle>
    <vehicle id="117" type="passenger" depart="52.55">
        <route edges="top0A0.250.00 A0right0"/>
    </vehicle>
    <vehicle id="118" type="passenger" depart="52.65">
        <route edges="top0A0.250.00 A0bottom0"/>
    </vehicle>
    <vehicle id="119" type="passenger" depart="52.70">
        <route edges="right0A0.250.00 A0bottom0"/>
    </vehicle>
    <vehicle id="120" type="passenger" depart="53.40">
        <route edges="left0A0 left0A0.250.00 A0bottom0"/>
    </vehicle>
    <vehicle id="122" type="passenger" depart="54.05">
        <route edges="left0A0 left0A0.250.00 A0bottom0"/>
    </vehicle>
    <vehicle id="123" type="passenger" depart="54.50">
        <route edges="top0A0.250.00 A0left0"/>
    </vehicle>
    <vehicle id="125" type="passenger" depart="56.65">
        <route edges="left0A0.250.00 A0bottom0"/>
    </vehicle>
    <vehicle id="126" type="passenger" depart="56.95">
        <route edges="left0A0 left0A0.250.00 A0top0"/>
    </vehicle>
    <vehicle id="128" type="passenger" depart="57.95">
        <route edges="right0A0 right0A0.250.00 A0bottom0"/>
    </vehicle>
    <vehicle id="129" type="passenger" depart="60.20">
        <route edges="top0A0.250.00 A0left0"/>
    </vehicle>
    <vehicle id="130" type="passenger" depart="60.20">
        <route edges="top0A0 top0A0.250.00 A0right0"/>
    </vehicle>
    <vehicle id="132" type="passenger" depart="60.25">
        <route edges="right0A0.250.00 A0bottom0"/>
    </vehicle>
    <vehicle id="133" type="passenger" depart="61.10">
        <route edges="right0A0 right0A0.250.00 A0left0"/>
    </vehicle>
    <vehicle id="135" type="passenger" depart="62.70">
        <route edges="top0A0.250.00 A0bottom0"/>
    </vehicle>
    <vehicle id="137" type="passenger" depart="63.25">
        <route edges="top0A0.250.00 A0left0"/>
    </vehicle>
    <vehicle id="138" type="passenger" depart="63.25">
        <route edges="top0A0.250.00 A0left0"/>
    </vehicle>
    <vehicle id="140" type="passenger" depart="63.30">
        <route edges="top0A0 top0A0.250.00 A0bottom0"/>
    </vehicle>
    <vehicle id="141" type="passenger" depart="63.35">
        <route edges="right0A0 right0A0.250.00 A0bottom0"/>
    </vehicle>
    <vehicle id="142" type="passenger" depart="63.45">
        <route edges="top0A0.250.00 A0right0"/>
    </vehicle>
    <vehicle id="148" type="passenger" depart="67.40">
        <route edges="right0A0 right0A0.250.00 A0top0"/>
    </vehicle>
    <vehicle id="150" type="passenger" depart="67.65">
        <route edges="right0A0 right0A0.250.00 A0top0"/>
    </vehicle>
    <vehicle id="154" type="passenger" depart="68.70">
        <route edges="bottom0A0.250.00 A0top0"/>
    </vehicle>
    <vehicle id="156" type="passenger" depart="69.60">
        <route edges="left0A0 left0A0.250.00 A0right0"/>
    </vehicle>
    <vehicle id="157" type="passenger" depart="69.65">
        <route edges="left0A0 left0A0.250.00 A0top0"/>
    </vehicle>
    <vehicle id="158" type="passenger" depart="69.80">
        <route edges="left0A0.250.00"/>
    </vehicle>
    <vehicle id="159" type="passenger" depart="69.90">
        <route edges="bottom0A0.250.00"/>
    </vehicle>
    <vehicle id="160" type="passenger" depart="70.90">
        <route edges="left0A0 left0A0.250.00 A0right0"/>
    </vehicle>
    <vehicle id="162" type="passenger" depart="72.00">
        <route edges="top0A0.250.00 A0right0"/>
    </vehicle>
    <vehicle id="165" type="passenger" depart="72.55">
        <route edges="top0A0.250.00 A0left0"/>
    </vehicle>
    <vehicle id="167" type="passenger" depart="75.15">
        <route edges="right0A0.250.00 A0top0"/>
    </vehicle>
    <vehicle id="172" type="passenger" depart="77.20">
        <route edges="top0A0 top0A0.250.00 A0right0"/>
    </vehicle>
    <vehicle id="173" type="passenger" depart="78.25">
        <route edges="left0A0 left0A0.250.00 A0right0"/>
    </vehicle>
    <vehicle id="174" type="passenger" depart="79.80">
        <route edges="right0A0 right0A0.250.00 A0left0"/>
    </vehicle>
    <vehicle id="175" type="passenger" depart="80.35">
        <route edges="left0A0.250.00"/>
    </vehicle>
    <vehicle id="176" type="passenger" depart="80.50">
        <route edges="top0A0 top0A0.250.00 A0bottom0"/>
    </vehicle>
    <vehicle id="177" type="passenger" depart="80.70">
        <route edges="left0A0.250.00"/>
    </vehicle>
    <vehicle id="178" type="passenger" depart="81.10">
        <route edges="bottom0A0 bottom0A0.250.00"/>
    </vehicle>
    <vehicle id="179" type="passenger" depart="82.10">
        <route edges="bottom0A0.250.00 A0right0"/>
    </vehicle>
    <vehicle id="180" type="passenger" depart="82.40">
        <route edges="left0A0 left0A0.250.00 A0bottom0"/>
    </vehicle>
    <vehicle id="183" type="passenger" depart="82.95">
        <route edges="bottom0A0 bottom0A0.250.00"/>
    </vehicle>
    <vehicle id="184" type="passenger" depart="83.45">
        <route edges="right0A0 right0A0.250.00"/>
    </vehicle>
    <vehicle id="187" type="passenger" depart="86.10">
        <route edges="right0A0.250.00 A0bottom0"/>
    </vehicle>
    <vehicle id="189" type="passenger" depart="86.85">
        <route edges="right0A0.250.00"/>
    </vehicle>
    <vehicle id="190" type="passenger" depart="87.10">
        <route edges="bottom0A0 bottom0A0.250.00 A0right0"/>
    </vehicle>
    <vehicle id="191" type="passenger" depart="87.35">
        <route edges="top0A0 top0A0.250.00 A0left0"/>
    </vehicle>
    <vehicle id="192" type="passenger" depart="87.55">
        <route edges="left0A0 left0A0.250.00"/>
    </vehicle>
    <vehicle id="194" type="passenger" depart="87.60">
        <route edges="top0A0.250.00 A0right0"/>
    </vehicle>
    <vehicle id="195" type="passenger" depart="89.05">
        <route edges="left0A0 left0A0.250.00"/>
    </vehicle>
    <vehicle id="196" type="passenger" depart="89.05">
        <route edges="left0A0 left0A0.250.00"/>
    </vehicle>
    <vehicle id="197" type="passenger" depart="90.00">
        <route edges="right0A0 right0A0.250.00 A0bottom0"/>
    </vehicle>
    <vehicle id="198" type="passenger" depart="90.75">
        <route edges="left0A0.250.00 A0top0"/>
    </vehicle>
    <vehicle id="199" type="passenger" depart="90.80">
        <route edges="bottom0A0 bottom0A0.250.00 A0top0"/>
    </vehicle>
    <vehicle id="201" type="passenger" depart="91.65">
        <route edges="bottom0A0 bottom0A0.250.00 A0top0"/>
    </vehicle>
    <vehicle id="202" type="passenger" depart="91.95">
        <route edges="bottom0A0 bottom0A0.250.00 A0right0"/>
    </vehicle>
    <vehicle id="206" type="passenger" depart="94.40">
        <route edges="top0A0.250.00 A0left0"/>
    </vehicle>
    <vehicle id="207" type="passenger" depart="94.50">
        <route edges="right0A0.250.00 A0top0"/>
    </vehicle>
    <vehicle id="208" type="passenger" depart="94.55">
        <route edges="bottom0A0.250.00"/>
    </vehicle>
    <vehicle id="209" type="passenger" depart="94.55">
        <route edges="left0A0.250.00 A0bottom0"/>
    </vehicle>
    <vehicle id="211" type="passenger" depart="94.95">
        <route edges="bottom0A0.250.00 A0top0"/>
    </vehicle>
    <vehicle id="212" type="passenger" depart="95.40">
        <route edges="right0A0.250.00 A0left0"/>
    </vehicle>
    <vehicle id="213" type="passenger" depart="95.65">
        <route edges="left0A0 left0A0.250.00 A0top0"/>
    </vehicle>
    <vehicle id="218" type="passenger" depart="96.30">
        <route edges="top0A0 top0A0.250.00 A0left0"/>
    </vehicle>
    <vehicle id="222" type="passenger" depart="97.35">
        <route edges="left0A0 left0A0.250.00"/>
    </vehicle>
    <vehicle id="223" type="passenger" depart="98.10">
        <route edges="top0A0.250.00 A0left0"/>
    </vehicle>
    <vehicle id="226" type="passenger" depart="98.55">
        <route edges="right0A0 right0A0.250.00"/>
    </vehicle>
    <vehicle id="227" type="passenger" depart="98.75">
        <route edges="right0A0 right0A0.250.00 A0left0"/>
    </vehicle>
    <vehicle id="229" type="passenger" depart="100.60">
        <route edges="bottom0A0.250.00 A0right0"/>
    </vehicle>
    <vehicle id="230" type="passenger" depart="100.90">
        <route edges="bottom0A0 bottom0A0.250.00 A0right0"/>
    </vehicle>
    <vehicle id="231" type="passenger" depart="101.75">
        <route edges="right0A0 right0A0.250.00 A0bottom0"/>
    </vehicle>
    <vehicle id="232" type="passenger" depart="102.20">
        <route edges="right0A0 right0A0.250.00 A0top0"/>
    </vehicle>
    <vehicle id="234" type="passenger" depart="102.65">
        <route edges="right0A0.250.00 A0left0"/>
    </vehicle>
    <vehicle id="236" type="passenger" depart="104.45">
        <route edges="left0A0 left0A0.250.00"/>
    </vehicle>
    <vehicle id="238" type="passenger" depart="106.15">
        <route edges="left0A0.250.00 A0right0"/>
    </vehicle>
    <vehicle id="240" type="passenger" depart="107.40">
        <route edges="right0A0 right0A0.250.00"/>
    </vehicle>
    <vehicle id="241" type="passenger" depart="107.70">
        <route edges="right0A0 right0A0.250.00"/>
    </vehicle>
    <vehicle id="242" type="passenger" depart="108.00">
        <route edges="bottom0A0.250.00 A0top0"/>
    </vehicle>
    <vehicle id="243" type="passenger" depart="108.15">
        <route edges="right0A0 right0A0.250.00 A0top0"/>
    </vehicle>
    <vehicle id="245" type="passenger" depart="108.90">
        <route edges="top0A0.250.00 A0bottom0"/>
    </vehicle>
    <vehicle id="246" type="passenger" depart="109.95">
        <route edges="left0A0.250.00"/>
    </vehicle>
    <vehicle id="247" type="passenger" depart="111.85">
        <route edges="right0A0 right0A0.250.00"/>
    </vehicle>
    <vehicle id="248" type="passenger" depart="112.50">
        <route edges="top0A0 top0A0.250.00 A0bottom0"/>
    </vehicle>
    <vehicle id="250" type="passenger" depart="115.25">
        <route edges="left0A0 left0A0.250.00 A0right0"/>
    </vehicle>
    <vehicle id="251" type="passenger" depart="117.30">
        <route edges="top0A0 top0A0.250.00"/>
    </vehicle>
    <vehicle id="253" type="passenger" depart="118.40">
        <route edges="right0A0 right0A0.250.00 A0top0"/>
    </vehicle>
    <vehicle id="255" type="passenger" depart="119.50">
        <route edges="top0A0.250.00"/>
    </vehicle>
    <vehicle id="257" type="passenger" depart="119.90">
        <route edges="top0A0 top0A0.250.00"/>
    </vehicle>
    <vehicle id="258" type="passenger" depart="120.25">
        <route edges="top0A0 top0A0.250.00 A0right0"/>
    </vehicle>
    <vehicle id="259" type="passenger" depart="120.40">
        <route edges="left0A0 left0A0.250.00 A0right0"/>
    </vehicle>
    <vehicle id="262" type="passenger" depart="121.10">
        <route edges="bottom0A0.250.00 A0left0"/>
    </vehicle>
    <vehicle id="264" type="passenger" depart="121.45">
        <route edges="left0A0.250.00 A0bottom0"/>
    </vehicle>
    <vehicle id="265" type="passenger" depart="121.45">
        <route edges="bottom0A0.250.00 A0left0"/>
    </vehicle>
    <vehicle id="266" type="passenger" depart="121.55">
        <route edges="right0A0.250.00 A0left0"/>
    </vehicle>
    <vehicle id="267" type="passenger" depart="121.75">
        <route edges="right0A0.250.00"/>
    </vehicle>
    <vehicle id="269" type="passenger" depart="121.95">
        <route edges="right0A0.250.00 A0bottom0"/>
    </vehicle>
    <vehicle id="271" type="passenger" depart="123.20">
        <route edges="bottom0A0 bottom0A0.250.00 A0right0"/>
    </vehicle>
    <vehicle id="273" type="passenger" depart="124.65">
        <route edges="top0A0 top0A0.250.00 A0left0"/>
    </vehicle>
    <vehicle id="275" type="passenger" depart="125.50">
        <route edges="right0A0.250.00 A0left0"/>
    </vehicle>
    <vehicle id="276" type="passenger" depart="125.90">
        <route edges="bottom0A0 bottom0A0.250.00 A0top0"/>
    </vehicle>
    <vehicle id="277" type="passenger" depart="126.05">
        <route edges="bottom0A0 bottom0A0.250.00 A0left0"/>
    </vehicle>
    <vehicle id="278" type="passenger" depart="126.30">
        <route edges="right0A0 right0A0.250.00"/>
    </vehicle>
    <vehicle id="279" type="passenger" depart="126.40">
        <route edges="left0A0.250.00 A0bottom0"/>
    </vehicle>
    <vehicle id="280" type="passenger" depart="126.75">
        <route edges="bottom0A0 bottom0A0.250.00 A0right0"/>
    </vehicle>
    <vehicle id="282" type="passenger" depart="127.50">
        <route edges="right0A0.250.00 A0left0"/>
    </vehicle>
    <vehicle id="284" type="passenger" depart="127.90">
        <route edges="right0A0.250.00 A0left0"/>
    </vehicle>
    <vehicle id="285" type="passenger" depart="127.95">
        <route edges="left0A0.250.00 A0bottom0"/>
    </vehicle>
    <vehicle id="286" type="passenger" depart="128.25">
        <route edges="left0A0 left0A0.250.00 A0right0"/>
    </vehicle>
    <vehicle id="289" type="passenger" depart="128.60">
        <route edges="right0A0.250.00"/>
    </vehicle>
    <vehicle id="293" type="passenger" depart="130.10">
        <route edges="top0A0 top0A0.250.00"/>
    </vehicle>
    <vehicle id="294" type="passenger" depart="130.75">
        <route edges="left0A0 left0A0.250.00 A0right0"/>
    </vehicle>
    <vehicle id="296" type="passenger" depart="131.30">
        <route edges="top0A0.250.00"/>
    </vehicle>
    <vehicle id="297" type="passenger" depart="131.85">
        <route edges="left0A0.250.00 A0top0"/>
    </vehicle>
    <vehicle id="299" type="passenger" depart="132.20">
        <route edges="left0A0 left0A0.250.00 A0right0"/>
    </vehicle>
    <vehicle id="300" type="passenger" depart="132.35">
        <route edges="bottom0A0 bottom0A0.250.00"/>
    </vehicle>
    <vehicle id="305" type="passenger" depart="133.85">
        <route edges="top0A0 top0A0.250.00 A0left0"/>
    </vehicle>
    <vehicle id="306" type="passenger" depart="133.95">
        <route edges="right0A0.250.00 A0top0"/>
    </vehicle>
    <vehicle id="308" type="passenger" depart="135.15">
        <route edges="left0A0 left0A0.250.00 A0top0"/>
    </vehicle>
    <vehicle id="310" type="passenger" depart="137.15">
        <route edges="top0A0.250.00 A0right0"/>
    </vehicle>
    <vehicle id="313" type="passenger" depart="139.80">
        <route edges="bottom0A0.250.00 A0left0"/>
    </vehicle>
    <vehicle id="314" type="passenger" depart="140.70">
        <route edges="bottom0A0 bottom0A0.250.00 A0top0"/>
    </vehicle>
    <vehicle id="315" type="passenger" depart="140.90">
        <route edges="left0A0 left0A0.250.00 A0top0"/>
    </vehicle>
    <vehicle id="318" type="passenger" depart="141.20">
        <route edges="right0A0 right0A0.250.00 A0top0"/>
    </vehicle>
    <vehicle id="319" type="passenger" depart="142.55">
        <route edges="bottom0A0.250.00 A0right0"/>
    </vehicle>
    <vehicle id="320" type="passenger" depart="142.95">
        <route edges="right0A0.250.00"/>
    </vehicle>
    <vehicle id="321" type="passenger" depart="143.30">
        <route edges="top0A0 top0A0.250.00 A0right0"/>
    </vehicle>
    <vehicle id="324" type="passenger" depart="143.90">
        <route edges="left0A0 left0A0.250.00 A0bottom0"/>
    </vehicle>
    <vehicle id="326" type="passenger" depart="146.15">
        <route edges="top0A0 top0A0.250.00 A0bottom0"/>
    </vehicle>
    <vehicle id="328" type="passenger" depart="147.00">
        <route edges="right0A0 right0A0.250.00"/>
    </vehicle>
    <vehicle id="329" type="passenger" depart="147.70">
        <route edges="right0A0.250.00"/>
    </vehicle>
    <vehicle id="330" type="passenger" depart="148.75">
        <route edges="left0A0.250.00 A0top0"/>
    </vehicle>
    <vehicle id="332" type="passenger" depart="150.60">
        <route edges="top0A0.250.00 A0left0"/>
    </vehicle>
    <vehicle id="333" type="passenger" depart="150.70">
        <route edges="left0A0.250.00 A0top0"/>
    </vehicle>
    <vehicle id="335" type="passenger" depart="151.70">
        <route edges="top0A0 top0A0.250.00 A0right0"/>
    </vehicle>
    <vehicle id="339" type="passenger" depart="153.40">
        <route edges="left0A0 left0A0.250.00 A0top0"/>
    </vehicle>
    <vehicle id="340" type="passenger" depart="153.45">
        <route edges="left0A0.250.00"/>
    </vehicle>
    <vehicle id="341" type="passenger" depart="156.50">
        <route edges="right0A0.250.00 A0top0"/>
    </vehicle>
    <vehicle id="342" type="passenger" depart="158.60">
        <route edges="right0A0 right0A0.250.00"/>
    </vehicle>
    <vehicle id="343" type="passenger" depart="159.20">
        <route edges="top0A0.250.00 A0right0"/>
    </vehicle>
    <vehicle id="346" type="passenger" depart="159.55">
        <route edges="right0A0.250.00 A0left0"/>
    </vehicle>
    <vehicle id="349" type="passenger" depart="160.90">
        <route edges="left0A0.250.00 A0bottom0"/>
    </vehicle>
    <vehicle id="351" type="passenger" depart="161.75">
        <route edges="top0A0 top0A0.250.00 A0bottom0"/>
    </vehicle>
    <vehicle id="352" type="passenger" depart="161.80">
        <route edges="right0A0 right0A0.250.00 A0left0"/>
    </vehicle>
    <vehicle id="355" type="passenger" depart="163.55">
        <route edges="left0A0 left0A0.250.00 A0bottom0"/>
    </vehicle>
    <vehicle id="356" type="passenger" depart="164.30">
        <route edges="left0A0 left0A0.250.00 A0bottom0"/>
    </vehicle>
    <vehicle id="357" type="passenger" depart="164.30">
        <route edges="top0A0 top0A0.250.00 A0bottom0"/>
    </vehicle>
    <vehicle id="360" type="passenger" depart="166.20">
        <route edges="left0A0.250.00"/>
    </vehicle>
    <vehicle id="361" type="passenger" depart="167.10">
        <route edges="left0A0 left0A0.250.00"/>
    </vehicle>
    <vehicle id="362" type="passenger" depart="167.25">
        <route edges="right0A0 right0A0.250.00"/>
    </vehicle>
    <vehicle id="364" type="passenger" depart="168.30">
        <route edges="top0A0 top0A0.250.00 A0left0"/>
    </vehicle>
    <vehicle id="365" type="passenger" depart="168.40">
        <route edges="bottom0A0 bottom0A0.250.00 A0right0"/>
    </vehicle>
    <vehicle id="367" type="passenger" depart="168.50">
        <route edges="top0A0.250.00 A0left0"/>
    </vehicle>
    <vehicle id="368" type="passenger" depart="168.65">
        <route edges="right0A0 right0A0.250.00 A0bottom0"/>
    </vehicle>
    <vehicle id="371" type="passenger" depart="170.10">
        <route edges="top0A0.250.00 A0bottom0"/>
    </vehicle>
    <vehicle id="374" type="passenger" depart="172.35">
        <route edges="top0A0 top0A0.250.00 A0right0"/>
    </vehicle>
    <vehicle id="376" type="passenger" depart="172.85">
        <route edges="right0A0.250.00"/>
    </vehicle>
    <vehicle id="377" type="passenger" depart="172.85">
        <route edges="right0A0.250.00"/>
    </vehicle>
    <vehicle id="379" type="passenger" depart="173.00">
        <route edges="bottom0A0.250.00 A0left0"/>
    </vehicle>
    <vehicle id="381" type="passenger" depart="175.05">
        <route edges="bottom0A0 bottom0A0.250.00"/>
    </vehicle>
    <vehicle id="382" type="passenger" depart="175.20">
        <route edges="top0A0.250.00"/>
    </vehicle>
    <vehicle id="383" type="passenger" depart="175.25">
        <route edges="top0A0.250.00 A0right0"/>
    </vehicle>
    <vehicle id="386" type="passenger" depart="176.55">
        <route edges="bottom0A0 bottom0A0.250.00 A0top0"/>
    </vehicle>
    <vehicle id="388" type="passenger" depart="176.90">
        <route edges="bottom0A0.250.00"/>
    </vehicle>
    <vehicle id="389" type="passenger" depart="177.15">
        <route edges="left0A0 left0A0.250.00 A0top0"/>
    </vehicle>
    <vehicle id="393" type="passenger" depart="180.30">
        <route edges="top0A0.250.00"/>
    </vehicle>
    <vehicle id="395" type="passenger" depart="182.25">
        <route edges="right0A0.250.00 A0bottom0"/>
    </vehicle>
    <vehicle id="398" type="passenger" depart="184.75">
        <route edges="bottom0A0.250.00 A0left0"/>
    </vehicle>
    <vehicle id="399" type="passenger" depart="185.25">
        <route edges="left0A0 left0A0.250.00 A0top0"/>
    </vehicle>
    <vehicle id="400" type="passenger" depart="185.60">
        <route edges="left0A0.250.00 A0top0"/>
    </vehicle>
    <vehicle id="402" type="passenger" depart="187.65">
        <route edges="bottom0A0 bottom0A0.250.00"/>
    </vehicle>
    <vehicle id="405" type="passenger" depart="189.05">
        <route edges="right0A0 right0A0.250.00 A0top0"/>
    </vehicle>
    <vehicle id="408" type="passenger" depart="189.95">
        <route edges="left0A0.250.00 A0right0"/>
    </vehicle>
    <vehicle id="411" type="passenger" depart="192.35">
        <route edges="bottom0A0 bottom0A0.250.00"/>
    </vehicle>
    <vehicle id="412" type="passenger" depart="192.35">
        <route edges="top0A0.250.00 A0left0"/>
    </vehicle>
    <vehicle id="413" type="passenger" depart="192.50">
        <route edges="bottom0A0 bottom0A0.250.00"/>
    </vehicle>
    <vehicle id="415" type="passenger" depart="192.90">
        <route edges="bottom0A0.250.00 A0left0"/>
    </vehicle>
    <vehicle id="417" type="passenger" depart="193.45">
        <route edges="right0A0 right0A0.250.00 A0bottom0"/>
    </vehicle>
    <vehicle id="419" type="passenger" depart="195.25">
        <route edges="left0A0 left0A0.250.00"/>
    </vehicle>
    <vehicle id="421" type="passenger" depart="195.65">
        <route edges="bottom0A0 bottom0A0.250.00 A0right0"/>
    </vehicle>