<?xml version="1.0" encoding="UTF-8"?>

<!-- generated on 2023-04-26 16:56:40.645735 by randomTrips.py UNKNOWN
<configuration>
    <begin value="0"/>
    <end value="900"/>
    <insertion-rate value="8000.0"/>
    <net-file value="/home/franky3er/Documents/code/HieraGLight/scenarios/grid/1x1-500m/train/16-scenario/network.net.xml"/>
    <random value="True"/>
    <random-depart value="True"/>
    <route-file value="/home/franky3er/Documents/code/HieraGLight/scenarios/grid/1x1-500m/train/16-scenario/routes.rou.xml"/>
    <seed value="16"/>
    <output-trip-file value="/home/franky3er/Documents/code/HieraGLight/scenarios/grid/1x1-500m/train/16-scenario/trips.trips.xml"/>
    <vehicle-class value="passenger"/>
</configuration>
-->

<routes xmlns:xsi="http://www.w3.org/2001/XMLSchema-instance" xsi:noNamespaceSchemaLocation="http://sumo.dlr.de/xsd/routes_file.xsd">
    <vType id="passenger" vClass="passenger"/>
    <trip id="0" depart="1.75" from="left0A0" to="left0A0.250.00" type="passenger"/>
    <trip id="1" depart="1.85" from="bottom0A0" to="A0bottom0" type="passenger"/>
    <trip id="2" depart="1.90" from="left0A0" to="A0left0" type="passenger"/>
    <trip id="3" depart="1.95" from="bottom0A0" to="A0left0" type="passenger"/>
    <trip id="4" depart="2.15" from="right0A0" to="bottom0A0.250.00" type="passenger"/>
    <trip id="5" depart="2.55" from="bottom0A0" to="A0left0" type="passenger"/>
    <trip id="6" depart="3.00" from="left0A0.250.00" to="A0bottom0" type="passenger"/>
    <trip id="7" depart="3.50" from="right0A0" to="A0right0" type="passenger"/>
    <trip id="8" depart="4.00" from="top0A0" to="A0left0" type="passenger"/>
    <trip id="9" depart="5.45" from="right0A0.250.00" to="A0left0" type="passenger"/>
    <trip id="10" depart="5.75" from="bottom0A0.250.00" to="A0top0" type="passenger"/>
    <trip id="11" depart="6.25" from="bottom0A0" to="bottom0A0.250.00" type="passenger"/>
    <trip id="12" depart="6.30" from="bottom0A0.250.00" to="A0top0" type="passenger"/>
    <trip id="13" depart="6.40" from="top0A0.250.00" to="top0A0.250.00" type="passenger"/>
    <trip id="14" depart="6.45" from="right0A0.250.00" to="top0A0.250.00" type="passenger"/>
    <trip id="15" depart="6.60" from="top0A0" to="right0A0.250.00" type="passenger"/>
    <trip id="16" depart="6.85" from="bottom0A0.250.00" to="A0right0" type="passenger"/>
    <trip id="17" depart="7.05" from="left0A0" to="A0left0" type="passenger"/>
    <trip id="18" depart="8.00" from="right0A0.250.00" to="bottom0A0.250.00" type="passenger"/>
    <trip id="19" depart="8.30" from="bottom0A0.250.00" to="bottom0A0.250.00" type="passenger"/>
    <trip id="20" depart="8.30" from="right0A0" to="bottom0A0.250.00" type="passenger"/>
    <trip id="21" depart="8.45" from="bottom0A0" to="left0A0.250.00" type="passenger"/>
    <trip id="22" depart="9.85" from="bottom0A0" to="A0right0" type="passenger"/>
    <trip id="23" depart="10.30" from="right0A0" to="bottom0A0.250.00" type="passenger"/>
    <trip id="24" depart="10.35" from="bottom0A0.250.00" to="bottom0A0.250.00" type="passenger"/>
    <trip id="25" depart="10.50" from="top0A0.250.00" to="bottom0A0.250.00" type="passenger"/>
    <trip id="26" depart="11.80" from="top0A0" to="A0right0" type="passenger"/>
    <trip id="27" depart="12.00" from="top0A0.250.00" to="left0A0.250.00" type="passenger"/>
    <trip id="28" depart="12.50" from="bottom0A0.250.00" to="A0right0" type="passenger"/>
    <trip id="29" depart="12.75" from="left0A0" to="A0right0" type="passenger"/>
    <trip id="30" depart="13.40" from="right0A0.250.00" to="bottom0A0.250.00" type="passenger"/>
    <trip id="31" depart="13.50" from="top0A0" to="A0top0" type="passenger"/>
    <trip id="32" depart="13.55" from="top0A0.250.00" to="right0A0.250.00" type="passenger"/>
    <trip id="33" depart="13.55" from="left0A0" to="right0A0.250.00" type="passenger"/>
    <trip id="34" depart="13.65" from="right0A0" to="A0right0" type="passenger"/>
    <trip id="35" depart="14.80" from="bottom0A0" to="A0bottom0" type="passenger"/>
    <trip id="36" depart="16.00" from="top0A0" to="A0left0" type="passenger"/>
    <trip id="37" depart="17.25" from="bottom0A0" to="top0A0.250.00" type="passenger"/>
    <trip id="38" depart="17.30" from="right0A0" to="A0right0" type="passenger"/>
    <trip id="39" depart="17.40" from="right0A0.250.00" to="right0A0.250.00" type="passenger"/>
    <trip id="40" depart="17.55" from="left0A0" to="A0left0" type="passenger"/>
    <trip id="41" depart="17.75" from="top0A0.250.00" to="A0left0" type="passenger"/>
    <trip id="42" depart="18.05" from="top0A0.250.00" to="A0right0" type="passenger"/>
    <trip id="43" depart="18.10" from="left0A0.250.00" to="A0left0" type="passenger"/>
    <trip id="44" depart="18.45" from="bottom0A0" to="right0A0.250.00" type="passenger"/>
    <trip id="45" depart="19.50" from="top0A0.250.00" to="A0right0" type="passenger"/>
    <trip id="46" depart="19.85" from="top0A0" to="right0A0.250.00" type="passenger"/>
    <trip id="47" depart="20.35" from="left0A0.250.00" to="right0A0.250.00" type="passenger"/>
    <trip id="48" depart="20.80" from="bottom0A0.250.00" to="bottom0A0.250.00" type="passenger"/>
    <trip id="49" depart="20.90" from="left0A0" to="A0left0" type="passenger"/>
    <trip id="50" depart="21.05" from="right0A0.250.00" to="A0bottom0" type="passenger"/>
    <trip id="51" depart="22.75" from="right0A0.250.00" to="A0right0" type="passenger"/>
    <trip id="52" depart="22.85" from="top0A0.250.00" to="bottom0A0.250.00" type="passenger"/>
    <trip id="53" depart="23.20" from="top0A0" to="A0bottom0" type="passenger"/>
    <trip id="54" depart="24.10" from="top0A0.250.00" to="top0A0.250.00" type="passenger"/>
    <trip id="55" depart="24.20" from="left0A0" to="right0A0.250.00" type="passenger"/>
    <trip id="56" depart="24.60" from="left0A0.250.00" to="A0right0" type="passenger"/>
    <trip id="57" depart="26.25" from="left0A0.250.00" to="bottom0A0.250.00" type="passenger"/>
    <trip id="58" depart="26.35" from="top0A0.250.00" to="left0A0.250.00" type="passenger"/>
    <trip id="59" depart="27.35" from="left0A0" to="bottom0A0.250.00" type="passenger"/>
    <trip id="60" depart="27.45" from="right0A0.250.00" to="top0A0.250.00" type="passenger"/>
    <trip id="61" depart="28.15" from="left0A0" to="bottom0A0.250.00" type="passenger"/>
    <trip id="62" depart="28.40" from="left0A0" to="right0A0.250.00" type="passenger"/>
    <trip id="63" depart="28.90" from="bottom0A0" to="A0bottom0" type="passenger"/>
    <trip id="64" depart="28.95" from="right0A0.250.00" to="left0A0.250.00" type="passenger"/>
    <trip id="65" depart="29.10" from="right0A0.250.00" to="right0A0.250.00" type="passenger"/>
    <trip id="66" depart="29.60" from="right0A0.250.00" to="bottom0A0.250.00" type="passenger"/>
    <trip id="67" depart="29.85" from="right0A0.250.00" to="A0bottom0" type="passenger"/>
    <trip id="68" depart="30.25" from="bottom0A0" to="top0A0.250.00" type="passenger"/>
    <trip id="69" depart="30.50" from="top0A0.250.00" to="A0top0" type="passenger"/>
    <trip id="70" depart="30.65" from="bottom0A0" to="A0left0" type="passenger"/>
    <trip id="71" depart="31.30" from="bottom0A0.250.00" to="A0right0" type="passenger"/>
    <trip id="72" depart="31.85" from="left0A0" to="A0bottom0" type="passenger"/>
    <trip id="73" depart="31.85" from="top0A0" to="A0right0" type="passenger"/>
    <trip id="74" depart="32.55" from="top0A0" to="A0right0" type="passenger"/>
    <trip id="75" depart="33.00" from="top0A0.250.00" to="A0left0" type="passenger"/>
    <trip id="76" depart="33.30" from="top0A0" to="A0left0" type="passenger"/>
    <trip id="77" depart="34.40" from="left0A0.250.00" to="A0top0" type="passenger"/>
    <trip id="78" depart="35.90" from="right0A0" to="right0A0.250.00" type="passenger"/>
    <trip id="79" depart="36.40" from="right0A0.250.00" to="A0right0" type="passenger"/>
    <trip id="80" depart="36.50" from="right0A0.250.00" to="bottom0A0.250.00" type="passenger"/>
    <trip id="81" depart="37.35" from="right0A0" to="left0A0.250.00" type="passenger"/>
    <trip id="82" depart="37.50" from="left0A0" to="A0left0" type="passenger"/>
    <trip id="83" depart="37.50" from="top0A0.250.00" to="top0A0.250.00" type="passenger"/>
    <trip id="84" depart="38.25" from="left0A0.250.00" to="A0bottom0" type="passenger"/>
    <trip id="85" depart="38.45" from="top0A0.250.00" to="A0right0" type="passenger"/>
    <trip id="86" depart="38.80" from="left0A0.250.00" to="A0bottom0" type="passenger"/>
    <trip id="87" depart="38.85" from="top0A0" to="top0A0.250.00" type="passenger"/>
    <trip id="88" depart="39.30" from="bottom0A0.250.00" to="left0A0.250.00" type="passenger"/>
    <trip id="89" depart="39.55" from="bottom0A0.250.00" to="A0top0" type="passenger"/>
    <trip id="90" depart="39.65" from="top0A0.250.00" to="bottom0A0.250.00" type="passenger"/>
    <trip id="91" depart="39.70" from="right0A0" to="A0left0" type="passenger"/>
    <trip id="92" depart="40.05" from="left0A0" to="A0left0" type="passenger"/>
    <trip id="93" depart="40.35" from="right0A0.250.00" to="A0bottom0" type="passenger"/>
    <trip id="94" depart="40.75" from="top0A0" to="left0A0.250.00" type="passenger"/>
    <trip id="95" depart="41.20" from="left0A0" to="left0A0.250.00" type="passenger"/>
    <trip id="96" depart="41.95" from="left0A0" to="left0A0.250.00" type="passenger"/>
    <trip id="97" depart="43.55" from="left0A0" to="right0A0.250.00" type="passenger"/>
    <trip id="98" depart="45.45" from="bottom0A0" to="left0A0.250.00" type="passenger"/>
    <trip id="99" depart="45.60" from="left0A0.250.00" to="A0bottom0" type="passenger"/>
    <trip id="100" depart="46.95" from="right0A0.250.00" to="A0left0" type="passenger"/>
    <trip id="101" depart="46.95" from="left0A0.250.00" to="right0A0.250.00" type="passenger"/>
    <trip id="102" depart="47.40" from="bottom0A0" to="right0A0.250.00" type="passenger"/>
    <trip id="103" depart="48.55" from="bottom0A0" to="right0A0.250.00" type="passenger"/>
    <trip id="104" depart="48.55" from="left0A0" to="right0A0.250.00" type="passenger"/>
    <trip id="105" depart="48.60" from="right0A0" to="right0A0.250.00" type="passenger"/>
    <trip id="106" depart="48.75" from="left0A0" to="right0A0.250.00" type="passenger"/>
    <trip id="107" depart="48.85" from="top0A0" to="right0A0.250.00" type="passenger"/>
    <trip id="108" depart="49.00" from="top0A0" to="bottom0A0.250.00" type="passenger"/>
    <trip id="109" depart="49.05" from="top0A0.250.00" to="A0right0" type="passenger"/>
    <trip id="110" depart="49.45" from="bottom0A0" to="A0right0" type="passenger"/>
    <trip id="111" depart="50.45" from="bottom0A0" to="left0A0.250.00" type="passenger"/>
    <trip id="112" depart="50.50" from="top0A0" to="bottom0A0.250.00" type="passenger"/>
    <trip id="113" depart="51.15" from="left0A0" to="A0left0" type="passenger"/>
    <trip id="114" depart="51.35" from="top0A0" to="A0left0" type="passenger"/>
    <trip id="115" depart="51.40" from="top0A0" to="top0A0.250.00" type="passenger"/>
    <trip id="116" depart="52.50" from="left0A0" to="top0A0.250.00" type="passenger"/>
    <trip id="117" depart="52.55" from="top0A0.250.00" to="A0right0" type="passenger"/>
    <trip id="118" depart="52.65" from="top0A0.250.00" to="A0bottom0" type="passenger"/>
    <trip id="119" depart="52.70" from="right0A0.250.00" to="A0bottom0" type="passenger"/>
    <trip id="120" depart="53.40" from="left0A0" to="A0bottom0" type="passenger"/>
    <trip id="121" depart="53.80" from="right0A0.250.00" to="left0A0.250.00" type="passenger"/>
    <trip id="122" depart="54.05" from="left0A0" to="A0bottom0" type="passenger"/>
    <trip id="123" depart="54.50" from="top0A0.250.00" to="A0left0" type="passenger"/>
    <trip id="124" depart="54.90" from="top0A0" to="A0top0" type="passenger"/>
    <trip id="125" depart="56.65" from="left0A0.250.00" to="A0bottom0" type="passenger"/>
    <trip id="126" depart="56.95" from="left0A0" to="A0top0" type="passenger"/>
    <trip id="127" depart="57.30" from="left0A0.250.00" to="top0A0.250.00" type="passenger"/>
    <trip id="128" depart="57.95" from="right0A0" to="A0bottom0" type="passenger"/>
    <trip id="129" depart="60.20" from="top0A0.250.00" to="A0left0" type="passenger"/>
    <trip id="130" depart="60.20" from="top0A0" to="A0right0" type="passenger"/>
    <trip id="131" depart="60.25" from="top0A0.250.00" to="A0top0" type="passenger"/>
    <trip id="132" depart="60.25" from="right0A0.250.00" to="A0bottom0" type="passenger"/>
    <trip id="133" depart="61.10" from="right0A0" to="A0left0" type="passenger"/>
    <trip id="134" depart="61.85" from="left0A0" to="bottom0A0.250.00" type="passenger"/>
    <trip id="135" depart="62.70" from="top0A0.250.00" to="A0bottom0" type="passenger"/>
    <trip id="136" depart="62.95" from="left0A0.250.00" to="bottom0A0.250.00" type="passenger"/>
    <trip id="137" depart="63.25" from="top0A0.250.00" to="A0left0" type="passenger"/>
    <trip id="138" depart="63.25" from="top0A0.250.00" to="A0left0" type="passenger"/>
    <trip id="139" depart="63.30" from="right0A0" to="top0A0.250.00" type="passenger"/>
    <trip id="140" depart="63.30" from="top0A0" to="A0bottom0" type="passenger"/>
    <trip id="141" depart="63.35" from="right0A0" to="A0bottom0" type="passenger"/>
    <trip id="142" depart="63.45" from="top0A0.250.00" to="A0right0" type="passenger"/>
    <trip id="143" depart="64.15" from="top0A0.250.00" to="bottom0A0.250.00" type="passenger"/>
    <trip id="144" depart="64.80" from="bottom0A0" to="A0bottom0" type="passenger"/>
    <trip id="145" depart="65.30" from="left0A0.250.00" to="top0A0.250.00" type="passenger"/>
    <trip id="146" depart="66.35" from="top0A0.250.00" to="A0top0" type="passenger"/>
    <trip id="147" depart="66.65" from="right0A0.250.00" to="left0A0.250.00" type="passenger"/>
    <trip id="148" depart="67.40" from="right0A0" to="A0top0" type="passenger"/>
    <trip id="149" depart="67.50" from="bottom0A0" to="left0A0.250.00" type="passenger"/>
    <trip id="150" depart="67.65" from="right0A0" to="A0top0" type="passenger"/>
    <trip id="151" depart="67.90" from="left0A0.250.00" to="A0left0" type="passenger"/>
    <trip id="152" depart="68.10" from="left0A0.250.00" to="A0left0" type="passenger"/>
    <trip id="153" depart="68.25" from="right0A0" to="bottom0A0.250.00" type="passenger"/>
    <trip id="154" depart="68.70" from="bottom0A0.250.00" to="A0top0" type="passenger"/>
    <trip id="155" depart="69.10" from="left0A0.250.00" to="top0A0.250.00" type="passenger"/>
    <trip id="156" depart="69.60" from="left0A0" to="A0right0" type="passenger"/>
    <trip id="157" depart="69.65" from="left0A0" to="A0top0" type="passenger"/>
    <trip id="158" depart="69.80" from="left0A0.250.00" to="left0A0.250.00" type="passenger"/>
    <trip id="159" depart="69.90" from="bottom0A0.250.00" to="bottom0A0.250.00" type="passenger"/>
    <trip id="160" depart="70.90" from="left0A0" to="A0right0" type="passenger"/>
    <trip id="161" depart="71.65" from="right0A0.250.00" to="top0A0.250.00" type="passenger"/>
    <trip id="162" depart="72.00" from="top0A0.250.00" to="A0right0" type="passenger"/>
    <trip id="163" depart="72.00" from="top0A0" to="bottom0A0.250.00" type="passenger"/>
    <trip id="164" depart="72.45" from="top0A0" to="left0A0.250.00" type="passenger"/>
    <trip id="165" depart="72.55" from="top0A0.250.00" to="A0left0" type="passenger"/>
    <trip id="166" depart="74.20" from="left0A0" to="right0A0.250.00" type="passenger"/>
    <trip id="167" depart="75.15" from="right0A0.250.00" to="A0top0" type="passenger"/>
    <trip id="168" depart="76.50" from="left0A0.250.00" to="top0A0.250.00" type="passenger"/>
    <trip id="169" depart="76.60" from="bottom0A0.250.00" to="top0A0.250.00" type="passenger"/>
    <trip id="170" depart="76.90" from="bottom0A0.250.00" to="A0bottom0" type="passenger"/>
    <trip id="171" depart="77.10" from="left0A0" to="bottom0A0.250.00" type="passenger"/>
    <trip id="172" depart="77.20" from="top0A0" to="A0right0" type="passenger"/>
    <trip id="173" depart="78.25" from="left0A0" to="A0right0" type="passenger"/>
    <trip id="174" depart="79.80" from="right0A0" to="A0left0" type="passenger"/>
    <trip id="175" depart="80.35" from="left0A0.250.00" to="left0A0.250.00" type="passenger"/>
    <trip id="176" depart="80.50" from="top0A0" to="A0bottom0" type="passenger"/>
    <trip id="177" depart="80.70" from="left0A0.250.00" to="left0A0.250.00" type="passenger"/>
    <trip id="178" depart="81.10" from="bottom0A0" to="bottom0A0.250.00" type="passenger"/>
    <trip id="179" depart="82.10" from="bottom0A0.250.00" to="A0right0" type="passenger"/>
    <trip id="180" depart="82.40" from="left0A0" to="A0bottom0" type="passenger"/>
    <trip id="181" depart="82.50" from="top0A0.250.00" to="right0A0.250.00" type="passenger"/>
    <trip id="182" depart="82.80" from="right0A0.250.00" to="left0A0.250.00" type="passenger"/>
    <trip id="183" depart="82.95" from="bottom0A0" to="bottom0A0.250.00" type="passenger"/>
    <trip id="184" depart="83.45" from="right0A0" to="right0A0.250.00" type="passenger"/>
    <trip id="185" depart="83.45" from="right0A0.250.00" to="bottom0A0.250.00" type="passenger"/>
    <trip id="186" depart="84.95" from="bottom0A0.250.00" to="right0A0.250.00" type="passenger"/>
    <trip id="187" depart="86.10" from="right0A0.250.00" to="A0bottom0" type="passenger"/>
    <trip id="188" depart="86.65" from="left0A0.250.00" to="A0left0" type="passenger"/>
    <trip id="189" depart="86.85" from="right0A0.250.00" to="right0A0.250.00" type="passenger"/>
    <trip id="190" depart="87.10" from="bottom0A0" to="A0right0" type="passenger"/>
    <trip id="191" depart="87.35" from="top0A0" to="A0left0" type="passenger"/>
    <trip id="192" depart="87.55" from="left0A0" to="left0A0.250.00" type="passenger"/>
    <trip id="193" depart="87.60" from="left0A0.250.00" to="right0A0.250.00" type="passenger"/>
    <trip id="194" depart="87.60" from="top0A0.250.00" to="A0right0" type="passenger"/>
    <trip id="195" depart="89.05" from="left0A0" to="left0A0.250.00" type="passenger"/>
    <trip id="196" depart="89.05" from="left0A0" to="left0A0.250.00" type="passenger"/>
    <trip id="197" depart="90.00" from="right0A0" to="A0bottom0" type="passenger"/>
    <trip id="198" depart="90.75" from="left0A0.250.00" to="A0top0" type="passenger"/>
    <trip id="199" depart="90.80" from="bottom0A0" to="A0top0" type="passenger"/>
    <trip id="200" depart="91.30" from="left0A0.250.00" to="top0A0.250.00" type="passenger"/>
    <trip id="201" depart="91.65" from="bottom0A0" to="A0top0" type="passenger"/>
    <trip id="202" depart="91.95" from="bottom0A0" to="A0right0" type="passenger"/>
    <trip id="203" depart="92.25" from="right0A0" to="top0A0.250.00" type="passenger"/>
    <trip id="204" depart="92.30" from="left0A0" to="bottom0A0.250.00" type="passenger"/>
    <trip id="205" depart="93.80" from="top0A0" to="A0top0" type="passenger"/>
    <trip id="206" depart="94.40" from="top0A0.250.00" to="A0left0" type="passenger"/>
    <trip id="207" depart="94.50" from="right0A0.250.00" to="A0top0" type="passenger"/>
    <trip id="208" depart="94.55" from="bottom0A0.250.00" to="bottom0A0.250.00" type="passenger"/>
    <trip id="209" depart="94.55" from="left0A0.250.00" to="A0bottom0" type="passenger"/>
    <trip id="210" depart="94.70" from="left0A0.250.00" to="top0A0.250.00" type="passenger"/>
    <trip id="211" depart="94.95" from="bottom0A0.250.00" to="A0top0" type="passenger"/>
    <trip id="212" depart="95.40" from="right0A0.250.00" to="A0left0" type="passenger"/>
    <trip id="213" depart="95.65" from="left0A0" to="A0top0" type="passenger"/>
    <trip id="214" depart="95.70" from="top0A0.250.00" to="A0top0" type="passenger"/>
    <trip id="215" depart="95.95" from="bottom0A0.250.00" to="A0bottom0" type="passenger"/>
    <trip id="216" depart="95.95" from="left0A0" to="A0left0" type="passenger"/>
    <trip id="217" depart="96.30" from="bottom0A0.250.00" to="right0A0.250.00" type="passenger"/>
    <trip id="218" depart="96.30" from="top0A0" to="A0left0" type="passenger"/>
    <trip id="219" depart="96.95" from="right0A0.250.00" to="bottom0A0.250.00" type="passenger"/>
    <trip id="220" depart="97.00" from="right0A0" to="top0A0.250.00" type="passenger"/>
    <trip id="221" depart="97.10" from="right0A0" to="left0A0.250.00" type="passenger"/>
    <trip id="222" depart="97.35" from="left0A0" to="left0A0.250.00" type="passenger"/>
    <trip id="223" depart="98.10" from="top0A0.250.00" to="A0left0" type="passenger"/>
    <trip id="224" depart="98.10" from="bottom0A0.250.00" to="A0bottom0" type="passenger"/>
    <trip id="225" depart="98.50" from="right0A0" to="top0A0.250.00" type="passenger"/>
    <trip id="226" depart="98.55" from="right0A0" to="right0A0.250.00" type="passenger"/>
    <trip id="227" depart="98.75" from="right0A0" to="A0left0" type="passenger"/>
    <trip id="228" depart="99.50" from="right0A0.250.00" to="top0A0.250.00" type="passenger"/>
    <trip id="229" depart="100.60" from="bottom0A0.250.00" to="A0right0" type="passenger"/>
    <trip id="230" depart="100.90" from="bottom0A0" to="A0right0" type="passenger"/>
    <trip id="231" depart="101.75" from="right0A0" to="A0bottom0" type="passenger"/>
    <trip id="232" depart="102.20" from="right0A0" to="A0top0" type="passenger"/>
    <trip id="233" depart="102.40" from="top0A0.250.00" to="right0A0.250.00" type="passenger"/>
    <trip id="234" depart="102.65" from="right0A0.250.00" to="A0left0" type="passenger"/>
    <trip id="235" depart="103.45" from="left0A0.250.00" to="A0left0" type="passenger"/>
    <trip id="236" depart="104.45" from="left0A0" to="left0A0.250.00" type="passenger"/>
    <trip id="237" depart="105.35" from="top0A0.250.00" to="A0top0" type="passenger"/>
    <trip id="238" depart="106.15" from="left0A0.250.00" to="A0right0" type="passenger"/>
    <trip id="239" depart="107.20" from="left0A0" to="A0left0" type="passenger"/>
    <trip id="240" depart="107.40" from="right0A0" to="right0A0.250.00" type="passenger"/>
    <trip id="241" depart="107.70" from="right0A0" to="right0A0.250.00" type="passenger"/>
    <trip id="242" depart="108.00" from="bottom0A0.250.00" to="A0top0" type="passenger"/>
    <trip id="243" depart="108.15" from="right0A0" to="A0top0" type="passenger"/>
    <trip id="244" depart="108.60" from="left0A0" to="right0A0.250.00" type="passenger"/>
    <trip id="245" depart="108.90" from="top0A0.250.00" to="A0bottom0" type="passenger"/>
    <trip id="246" depart="109.95" from="left0A0.250.00" to="left0A0.250.00" type="passenger"/>
    <trip id="247" depart="111.85" from="right0A0" to="right0A0.250.00" type="passenger"/>
    <trip id="248" depart="112.50" from="top0A0" to="A0bottom0" type="passenger"/>
    <trip id="249" depart="113.80" from="left0A0" to="right0A0.250.00" type="passenger"/>
    <trip id="250" depart="115.25" from="left0A0" to="A0right0" type="passenger"/>
    <trip id="251" depart="117.30" from="top0A0" to="top0A0.250.00" type="passenger"/>
    <trip id="252" depart="118.00" from="top0A0.250.00" to="bottom0A0.250.00" type="passenger"/>
    <trip id="253" depart="118.40" from="right0A0" to="A0top0" type="passenger"/>
    <trip id="254" depart="119.10" from="left0A0" to="right0A0.250.00" type="passenger"/>
    <trip id="255" depart="119.50" from="top0A0.250.00" to="top0A0.250.00" type="passenger"/>
    <trip id="256" depart="119.70" from="left0A0" to="A0left0" type="passenger"/>
    <trip id="257" depart="119.90" from="top0A0" to="top0A0.250.00" type="passenger"/>
    <trip id="258" depart="120.25" from="top0A0" to="A0right0" type="passenger"/>
    <trip id="259" depart="120.40" from="left0A0" to="A0right0" type="passenger"/>
    <trip id="260" depart="120.75" from="left0A0.250.00" to="A0left0" type="passenger"/>
    <trip id="261" depart="120.85" from="right0A0.250.00" to="bottom0A0.250.00" type="passenger"/>
    <trip id="262" depart="121.10" from="bottom0A0.250.00" to="A0left0" type="passenger"/>
    <trip id="263" depart="121.25" from="bottom0A0" to="A0bottom0" type="passenger"/>
    <trip id="264" depart="121.45" from="left0A0.250.00" to="A0bottom0" type="passenger"/>
    <trip id="265" depart="121.45" from="bottom0A0.250.00" to="A0left0" type="passenger"/>
    <trip id="266" depart="121.55" from="right0A0.250.00" to="A0left0" type="passenger"/>
    <trip id="267" depart="121.75" from="right0A0.250.00" to="right0A0.250.00" type="passenger"/>
    <trip id="268" depart="121.85" from="left0A0" to="A0left0" type="passenger"/>
    <trip id="269" depart="121.95" from="right0A0.250.00" to="A0bottom0" type="passenger"/>
    <trip id="270" depart="123.00" from="bottom0A0.250.00" to="top0A0.250.00" type="passenger"/>
    <trip id="271" depart="123.20" from="bottom0A0" to="A0right0" type="passenger"/>
    <trip id="272" depart="123.45" from="right0A0.250.00" to="A0right0" type="passenger"/>
    <trip id="273" depart="124.65" from="top0A0" to="A0left0" type="passenger"/>
    <trip id="274" depart="124.95" from="right0A0" to="top0A0.250.00" type="passenger"/>
    <trip id="275" depart="125.50" from="right0A0.250.00" to="A0left0" type="passenger"/>
    <trip id="276" depart="125.90" from="bottom0A0" to="A0top0" type="passenger"/>
    <trip id="277" depart="126.05" from="bottom0A0" to="A0left0" type="passenger"/>
    <trip id="278" depart="126.30" from="right0A0" to="right0A0.250.00" type="passenger"/>
    <trip id="279" depart="126.40" from="left0A0.250.00" to="A0bottom0" type="passenger"/>
    <trip id="280" depart="126.75" from="bottom0A0" to="A0right0" type="passenger"/>
    <trip id="281" depart="127.20" from="right0A0.250.00" to="top0A0.250.00" type="passenger"/>
    <trip id="282" depart="127.50" from="right0A0.250.00" to="A0left0" type="passenger"/>
    <trip id="283" depart="127.65" from="bottom0A0" to="right0A0.250.00" type="passenger"/>
    <trip id="284" depart="127.90" from="right0A0.250.00" to="A0left0" type="passenger"/>
    <trip id="285" depart="127.95" from="left0A0.250.00" to="A0bottom0" type="passenger"/>
    <trip id="286" depart="128.25" from="left0A0" to="A0right0" type="passenger"/>
    <trip id="287" depart="128.30" from="right0A0.250.00" to="left0A0.250.00" type="passenger"/>
    <trip id="288" depart="128.45" from="left0A0.250.00" to="A0left0" type="passenger"/>
    <trip id="289" depart="128.60" from="right0A0.250.00" to="right0A0.250.00" type="passenger"/>
    <trip id="290" depart="129.25" from="top0A0.250.00" to="A0top0" type="passenger"/>
    <trip id="291" depart="129.55" from="top0A0.250.00" to="A0top0" type="passenger"/>
    <trip id="292" depart="129.95" from="right0A0.250.00" to="bottom0A0.250.00" type="passenger"/>
    <trip id="293" depart="130.10" from="top0A0" to="top0A0.250.00" type="passenger"/>
    <trip id="294" depart="130.75" from="left0A0" to="A0right0" type="passenger"/>
    <trip id="295" depart="131.25" from="left0A0.250.00" to="A0left0" type="passenger"/>
    <trip id="296" depart="131.30" from="top0A0.250.00" to="top0A0.250.00" type="passenger"/>
    <trip id="297" depart="131.85" from="left0A0.250.00" to="A0top0" type="passenger"/>
    <trip id="298" depart="131.90" from="right0A0" to="left0A0.250.00" type="passenger"/>
    <trip id="299" depart="132.20" from="left0A0" to="A0right0" type="passenger"/>
    <trip id="300" depart="132.35" from="bottom0A0" to="bottom0A0.250.00" type="passenger"/>
    <trip id="301" depart="132.45" from="bottom0A0.250.00" to="top0A0.250.00" type="passenger"/>
    <trip id="302" depart="132.80" from="bottom0A0" to="left0A0.250.00" type="passenger"/>
    <trip id="303" depart="133.15" from="bottom0A0" to="right0A0.250.00" type="passenger"/>
    <trip id="304" depart="133.40" from="left0A0" to="A0left0" type="passenger"/>
    <trip id="305" depart="133.85" from="top0A0" to="A0left0" type="passenger"/>
    <trip id="306" depart="133.95" from="right0A0.250.00" to="A0top0" type="passenger"/>
    <trip id="307" depart="134.55" from="top0A0" to="A0top0" type="passenger"/>
    <trip id="308" depart="135.15" from="left0A0" to="A0top0" type="passenger"/>
    <trip id="309" depart="136.40" from="left0A0" to="top0A0.250.00" type="passenger"/>
    <trip id="310" depart="137.15" from="top0A0.250.00" to="A0right0" type="passenger"/>
    <trip id="311" depart="137.60" from="right0A0.250.00" to="top0A0.250.00" type="passenger"/>
    <trip id="312" depart="139.45" from="bottom0A0" to="right0A0.250.00" type="passenger"/>
    <trip id="313" depart="139.80" from="bottom0A0.250.00" to="A0left0" type="passenger"/>
    <trip id="314" depart="140.70" from="bottom0A0" to="A0top0" type="passenger"/>
    <trip id="315" depart="140.90" from="left0A0" to="A0top0" type="passenger"/>
    <trip id="316" depart="140.90" from="bottom0A0" to="right0A0.250.00" type="passenger"/>
    <trip id="317" depart="141.15" from="right0A0.250.00" to="bottom0A0.250.00" type="passenger"/>
    <trip id="318" depart="141.20" from="right0A0" to="A0top0" type="passenger"/>
    <trip id="319" depart="142.55" from="bottom0A0.250.00" to="A0right0" type="passenger"/>
    <trip id="320" depart="142.95" from="right0A0.250.00" to="right0A0.250.00" type="passenger"/>
    <trip id="321" depart="143.30" from="top0A0" to="A0right0" type="passenger"/>
    <trip id="322" depart="143.50" from="right0A0" to="top0A0.250.00" type="passenger"/>
    <trip id="323" depart="143.70" from="right0A0.250.00" to="top0A0.250.00" type="passenger"/>
    <trip id="324" depart="143.90" from="left0A0" to="A0bottom0" type="passenger"/>
    <trip id="325" depart="144.75" from="bottom0A0.250.00" to="right0A0.250.00" type="passenger"/>
    <trip id="326" depart="146.15" from="top0A0" to="A0bottom0" type="passenger"/>
    <trip id="327" depart="146.80" from="top0A0" to="bottom0A0.250.00" type="passenger"/>
    <trip id="328" depart="147.00" from="right0A0" to="right0A0.250.00" type="passenger"/>