<?xml version="1.0" encoding="UTF-8"?>

<!-- generated on 2023-04-26 16:56:34.303248 by randomTrips.py UNKNOWN
<configuration>
    <begin value="0"/>
    <end value="900"/>
    <insertion-rate value="8000.0"/>
    <net-file value="/home/franky3er/Documents/code/HieraGLight/scenarios/grid/1x1-500m/train/0-scenario/network.net.xml"/>
    <random value="True"/>
    <random-depart value="True"/>
    <route-file value="/home/franky3er/Documents/code/HieraGLight/scenarios/grid/1x1-500m/train/0-scenario/routes.rou.xml"/>
    <seed value="0"/>
    <output-trip-file value="/home/franky3er/Documents/code/HieraGLight/scenarios/grid/1x1-500m/train/0-scenario/trips.trips.xml"/>
    <vehicle-class value="passenger"/>
</configuration>
-->

<!-- generated on 2023-04-26 16:56:34 by Eclipse SUMO duarouter Version 1.16.0
<configuration xmlns:xsi="http://www.w3.org/2001/XMLSchema-instance" xsi:noNamespaceSchemaLocation="http://sumo.dlr.de/xsd/duarouterConfiguration.xsd">

    <input>
        <net-file value="/home/franky3er/Documents/code/HieraGLight/scenarios/grid/1x1-500m/train/0-scenario/network.net.xml"/>
        <route-files value="/home/franky3er/Documents/code/HieraGLight/scenarios/grid/1x1-500m/train/0-scenario/trips.trips.xml"/>
    </input>

    <output>
        <output-file value="/home/franky3er/Documents/code/HieraGLight/scenarios/grid/1x1-500m/train/0-scenario/routes.rou.xml"/>
        <alternatives-output value="NUL"/>
    </output>

    <time>
        <begin value="0"/>
        <end value="900"/>
    </time>

    <report>
        <no-warnings value="true"/>
        <ignore-errors value="true"/>
        <no-step-log value="true"/>
    </report>

</configuration>
-->

<routes xmlns:xsi="http://www.w3.org/2001/XMLSchema-instance" xsi:noNamespaceSchemaLocation="http://sumo.dlr.de/xsd/routes_file.xsd">
    <vType id="passenger" vClass="passenger"/>
    <vehicle id="0" type="passenger" depart="0.65">
        <route edges="bottom0A0.250.00 A0top0"/>
    </vehicle>
    <vehicle id="1" type="passenger" depart="2.05">
        <route edges="right0A0 right0A0.250.00 A0bottom0"/>
    </vehicle>
    <vehicle id="2" type="passenger" depart="2.80">
        <route edges="left0A0.250.00"/>
    </vehicle>
    <vehicle id="3" type="passenger" depart="3.00">
        <route edges="bottom0A0 bottom0A0.250.00"/>
    </vehicle>
    <vehicle id="4" type="passenger" depart="4.15">
        <route edges="bottom0A0.250.00 A0right0"/>
    </vehicle>
    <vehicle id="11" type="passenger" depart="7.75">
        <route edges="left0A0.250.00 A0top0"/>
    </vehicle>
    <vehicle id="12" type="passenger" depart="7.95">
        <route edges="right0A0.250.00 A0top0"/>
    </vehicle>
    <vehicle id="13" type="passenger" depart="8.00">
        <route edges="top0A0 top0A0.250.00 A0left0"/>
    </vehicle>
    <vehicle id="15" type="passenger" depart="9.10">
        <route edges="right0A0 right0A0.250.00 A0top0"/>
    </vehicle>
    <vehicle id="16" type="passenger" depart="9.15">
        <route edges="right0A0 right0A0.250.00 A0top0"/>
    </vehicle>
    <vehicle id="19" type="passenger" depart="10.40">
        <route edges="right0A0 right0A0.250.00 A0top0"/>
    </vehicle>
    <vehicle id="21" type="passenger" depart="10.95">
        <route edges="right0A0.250.00 A0bottom0"/>
    </vehicle>
    <vehicle id="23" type="passenger" depart="11.85">
        <route edges="right0A0.250.00 A0bottom0"/>
    </vehicle>
    <vehicle id="24" type="passenger" depart="12.70">
        <route edges="bottom0A0 bottom0A0.250.00 A0right0"/>
    </vehicle>
    <vehicle id="25" type="passenger" depart="12.75">
        <route edges="left0A0.250.00 A0top0"/>
    </vehicle>
    <vehicle id="26" type="passenger" depart="12.90">
        <route edges="left0A0 left0A0.250.00"/>
    </vehicle>
    <vehicle id="27" type="passenger" depart="13.45">
        <route edges="bottom0A0 bottom0A0.250.00 A0left0"/>
    </vehicle>
    <vehicle id="28" type="passenger" depart="13.70">
        <route edges="top0A0.250.00 A0right0"/>
    </vehicle>
    <vehicle id="29" type="passenger" depart="14.30">
        <route edges="bottom0A0.250.00"/>
    </vehicle>
    <vehicle id="35" type="passenger" depart="15.35">
        <route edges="left0A0 left0A0.250.00 A0right0"/>
    </vehicle>
    <vehicle id="36" type="passenger" depart="17.95">
        <route edges="right0A0 right0A0.250.00 A0bottom0"/>
    </vehicle>
    <vehicle id="37" type="passenger" depart="18.65">
        <route edges="left0A0 left0A0.250.00 A0bottom0"/>
    </vehicle>
    <vehicle id="42" type="passenger" depart="19.80">
        <route edges="left0A0 left0A0.250.00"/>
    </vehicle>
    <vehicle id="43" type="passenger" depart="20.00">
        <route edges="left0A0.250.00 A0bottom0"/>
    </vehicle>
    <vehicle id="46" type="passenger" depart="20.85">
        <route edges="top0A0.250.00 A0bottom0"/>
    </vehicle>
    <vehicle id="47" type="passenger" depart="21.30">
        <route edges="left0A0.250.00 A0bottom0"/>
    </vehicle>
    <vehicle id="48" type="passenger" depart="22.90">
        <route edges="left0A0.250.00 A0top0"/>
    </vehicle>
    <vehicle id="50" type="passenger" depart="23.55">
        <route edges="top0A0.250.00 A0right0"/>
    </vehicle>
    <vehicle id="53" type="passenger" depart="25.15">
        <route edges="top0A0.250.00"/>
    </vehicle>
    <vehicle id="54" type="passenger" depart="26.60">
        <route edges="right0A0.250.00 A0left0"/>
    </vehicle>
    <vehicle id="55" type="passenger" depart="27.30">
        <route edges="right0A0.250.00"/>
    </vehicle>
    <vehicle id="56" type="passenger" depart="28.10">
        <route edges="bottom0A0 bottom0A0.250.00 A0top0"/>
    </vehicle>
    <vehicle id="57" type="passenger" depart="29.10">
        <route edges="left0A0 left0A0.250.00"/>
    </vehicle>
    <vehicle id="61" type="passenger" depart="30.60">
        <route edges="left0A0.250.00 A0top0"/>
    </vehicle>
    <vehicle id="63" type="passenger" depart="31.20">
        <route edges="right0A0.250.00 A0bottom0"/>
    </vehicle>
    <vehicle id="65" type="passenger" depart="32.65">
        <route edges="right0A0.250.00 A0top0"/>
    </vehicle>
    <vehicle id="67" type="passenger" depart="34.10">
        <route edges="top0A0.250.00 A0bottom0"/>
    </vehicle>
    <vehicle id="69" type="passenger" depart="35.15">
        <route edges="left0A0.250.00 A0right0"/>
    </vehicle>
    <vehicle id="70" type="passenger" depart="35.35">
        <route edges="left0A0.250.00"/>
    </vehicle>
    <vehicle id="72" type="passenger" depart="36.15">
        <route edges="left0A0 left0A0.250.00 A0top0"/>
    </vehicle>
    <vehicle id="74" type="passenger" depart="37.95">
        <route edges="top0A0 top0A0.250.00 A0right0"/>
    </vehicle>
    <vehicle id="75" type="passenger" depart="38.15">
        <route edges="top0A0 top0A0.250.00 A0bottom0"/>
    </vehicle>
    <vehicle id="77" type="passenger" depart="39.20">
        <route edges="top0A0 top0A0.250.00"/>
    </vehicle>
    <vehicle id="78" type="passenger" depart="39.25">
        <route edges="top0A0 top0A0.250.00 A0right0"/>
    </vehicle>
    <vehicle id="81" type="passenger" depart="40.20">
        <route edges="left0A0.250.00 A0top0"/>
    </vehicle>
    <vehicle id="82" type="passenger" depart="40.40">
        <route edges="top0A0.250.00"/>
    </vehicle>
    <vehicle id="83" type="passenger" depart="40.90">
        <route edges="bottom0A0.250.00 A0left0"/>
    </vehicle>
    <vehicle id="84" type="passenger" depart="41.20">
        <route edges="right0A0 right0A0.250.00"/>
    </vehicle>
    <vehicle id="86" type="passenger" depart="41.95">
        <route edges="top0A0 top0A0.250.00 A0left0"/>
    </vehicle>
    <vehicle id="87" type="passenger" depart="42.75">
        <route edges="top0A0.250.00"/>
    </vehicle>
    <vehicle id="88" type="passenger" depart="42.90">
        <route edges="bottom0A0 bottom0A0.250.00 A0right0"/>
    </vehicle>
    <vehicle id="89" type="passenger" depart="43.35">
        <route edges="left0A0 left0A0.250.00"/>
    </vehicle>
    <vehicle id="90" type="passenger" depart="43.90">
        <route edges="right0A0.250.00 A0left0"/>
    </vehicle>
    <vehicle id="91" type="passenger" depart="44.00">
        <route edges="top0A0.250.00 A0right0"/>
    </vehicle>
    <vehicle id="94" type="passenger" depart="44.85">
        <route edges="left0A0 left0A0.250.00 A0right0"/>
    </vehicle>
    <vehicle id="95" type="passenger" depart="44.90">
        <route edges="right0A0 right0A0.250.00"/>
    </vehicle>
    <vehicle id="98" type="passenger" depart="45.85">
        <route edges="left0A0 left0A0.250.00"/>
    </vehicle>
    <vehicle id="100" type="passenger" depart="46.75">
        <route edges="top0A0.250.00 A0left0"/>
    </vehicle>
    <vehicle id="102" type="passenger" depart="47.65">
        <route edges="top0A0.250.00 A0left0"/>
    </vehicle>
    <vehicle id="103" type="passenger" depart="47.75">
        <route edges="bottom0A0 bottom0A0.250.00 A0left0"/>
    </vehicle>
    <vehicle id="104" type="passenger" depart="48.00">
        <route edges="top0A0.250.00"/>
    </vehicle>
    <vehicle id="107" type="passenger" depart="49.60">
        <route edges="right0A0.250.00 A0top0"/>
    </vehicle>
    <vehicle id="111" type="passenger" depart="51.95">
        <route edges="top0A0 top0A0.250.00 A0bottom0"/>
    </vehicle>
    <vehicle id="112" type="passenger" depart="52.00">
        <route edges="top0A0 top0A0.250.00 A0bottom0"/>
    </vehicle>
    <vehicle id="113" type="passenger" depart="52.15">
        <route edges="left0A0 left0A0.250.00 A0bottom0"/>
    </vehicle>
    <vehicle id="114" type="passenger" depart="54.05">
        <route edges="right0A0.250.00 A0bottom0"/>
    </vehicle>
    <vehicle id="116" type="passenger" depart="54.10">
        <route edges="left0A0.250.00 A0top0"/>
    </vehicle>
    <vehicle id="118" type="passenger" depart="55.30">
        <route edges="right0A0 right0A0.250.00 A0left0"/>
    </vehicle>
    <vehicle id="120" type="passenger" depart="55.80">
        <route edges="bottom0A0 bottom0A0.250.00 A0top0"/>
    </vehicle>
    <vehicle id="124" type="passenger" depart="57.75">
        <route edges="right0A0.250.00 A0top0"/>
    </vehicle>
    <vehicle id="126" type="passenger" depart="58.30">
        <route edges="top0A0.250.00 A0right0"/>
    </vehicle>
    <vehicle id="128" type="passenger" depart="59.05">
        <route edges="right0A0.250.00 A0bottom0"/>
    </vehicle>
    <vehicle id="131" type="passenger" depart="61.50">
        <route edges="right0A0.250.00 A0top0"/>
    </vehicle>
    <vehicle id="132" type="passenger" depart="62.30">
        <route edges="bottom0A0 bottom0A0.250.00"/>
    </vehicle>
    <vehicle id="133" type="passenger" depart="62.55">
        <route edges="top0A0 top0A0.250.00"/>
    </vehicle>
    <vehicle id="137" type="passenger" depart="64.25">
        <route edges="top0A0 top0A0.250.00 A0left0"/>
    </vehicle>
    <vehicle id="138" type="passenger" depart="64.75">
        <route edges="left0A0.250.00 A0top0"/>
    </vehicle>
    <vehicle id="141" type="passenger" depart="67.10">
        <route edges="top0A0.250.00 A0right0"/>
    </vehicle>
    <vehicle id="142" type="passenger" depart="67.60">
        <route edges="top0A0 top0A0.250.00 A0bottom0"/>
    </vehicle>
    <vehicle id="143" type="passenger" depart="67.85">
        <route edges="right0A0 right0A0.250.00 A0top0"/>
    </vehicle>
    <vehicle id="144" type="passenger" depart="67.95">
        <route edges="top0A0 top0A0.250.00 A0bottom0"/>
    </vehicle>
    <vehicle id="147" type="passenger" depart="69.80">
        <route edges="bottom0A0 bottom0A0.250.00"/>
    </vehicle>
    <vehicle id="149" type="passenger" depart="70.45">
        <route edges="top0A0 top0A0.250.00 A0left0"/>
    </vehicle>
    <vehicle id="150" type="passenger" depart="70.50">
        <route edges="left0A0.250.00 A0right0"/>
    </vehicle>
    <vehicle id="153" type="passenger" depart="72.95">
        <route edges="right0A0.250.00 A0left0"/>
    </vehicle>
    <vehicle id="154" type="passenger" depart="73.95">
        <route edges="bottom0A0 bottom0A0.250.00"/>
    </vehicle>
    <vehicle id="156" type="passenger" depart="74.30">
        <route edges="bottom0A0.250.00 A0top0"/>
    </vehicle>
    <vehicle id="157" type="passenger" depart="75.50">
        <route edges="bottom0A0.250.00 A0right0"/>
    </vehicle>
    <vehicle id="158" type="passenger" depart="75.60">
        <route edges="right0A0 right0A0.250.00 A0left0"/>
    </vehicle>
    <vehicle id="159" type="passenger" depart="76.40">
        <route edges="right0A0 right0A0.250.00 A0top0"/>
    </vehicle>
    <vehicle id="160" type="passenger" depart="76.85">
        <route edges="right0A0 right0A0.250.00"/>
    </vehicle>
    <vehicle id="162" type="passenger" depart="79.00">
        <route edges="bottom0A0 bottom0A0.250.00 A0right0"/>
    </vehicle>
    <vehicle id="163" type="passenger" depart="79.15">
        <route edges="left0A0 left0A0.250.00 A0right0"/>
    </vehicle>
    <vehicle id="164" type="passenger" depart="79.35">
        <route edges="top0A0.250.00 A0right0"/>
    </vehicle>
    <vehicle id="167" type="passenger" depart="80.15">
        <route edges="left0A0.250.00 A0top0"/>
    </vehicle>
    <vehicle id="169" type="passenger" depart="81.25">
        <route edges="top0A0 top0A0.250.00 A0bottom0"/>
    </vehicle>
    <vehicle id="173" type="passenger" depart="82.80">
        <route edges="top0A0 top0A0.250.00 A0right0"/>
    </vehicle>
    <vehicle id="174" type="passenger" depart="83.55">
        <route edges="bottom0A0.250.00 A0top0"/>
    </vehicle>
    <vehicle id="178" type="passenger" depart="89.30">
        <route edges="top0A0.250.00"/>
    </vehicle>
    <vehicle id="179" type="passenger" depart="89.70">
        <route edges="left0A0.250.00 A0bottom0"/>
    </vehicle>
    <vehicle id="180" type="passenger" depart="90.55">
        <route edges="right0A0 right0A0.250.00 A0bottom0"/>
    </vehicle>
    <vehicle id="182" type="passenger" depart="91.00">
        <route edges="top0A0 top0A0.250.00 A0left0"/>
    </vehicle>
    <vehicle id="184" type="passenger" depart="91.45">
        <route edges="right0A0.250.00 A0top0"/>
    </vehicle>
    <vehicle id="185" type="passenger" depart="91.55">
        <route edges="bottom0A0.250.00 A0top0"/>
    </vehicle>
    <vehicle id="187" type="passenger" depart="91.60">
        <route edges="bottom0A0 bottom0A0.250.00"/>
    </vehicle>
    <vehicle id="189" type="passenger" depart="93.35">
        <route edges="left0A0.250.00 A0top0"/>
    </vehicle>
    <vehicle id="190" type="passenger" depart="94.05">
        <route edges="right0A0 right0A0.250.00 A0top0"/>
    </vehicle>
    <vehicle id="194" type="passenger" depart="95.20">
        <route edges="right0A0.250.00 A0top0"/>
    </vehicle>
    <vehicle id="195" type="passenger" depart="95.45">
        <route edges="top0A0.250.00 A0right0"/>
    </vehicle>
    <vehicle id="196" type="passenger" depart="95.60">
        <route edges="top0A0 top0A0.250.00 A0right0"/>
    </vehicle>
    <vehicle id="199" type="passenger" depart="96.80">
        <route edges="right0A0.250.00 A0top0"/>
    </vehicle>
    <vehicle id="200" type="passenger" depart="97.00">
        <route edges="top0A0 top0A0.250.00 A0right0"/>
    </vehicle>
    <vehicle id="205" type="passenger" depart="98.50">
        <route edges="left0A0.250.00 A0right0"/>
    </vehicle>
    <vehicle id="208" type="passenger" depart="99.45">
        <route edges="top0A0.250.00 A0right0"/>
    </vehicle>
    <vehicle id="212" type="passenger" depart="100.20">
        <route edges="right0A0.250.00"/>
    </vehicle>
    <vehicle id="216" type="passenger" depart="102.45">
        <route edges="right0A0.250.00 A0bottom0"/>
    </vehicle>
    <vehicle id="217" type="passenger" depart="102.90">
        <route edges="top0A0 top0A0.250.00 A0bottom0"/>
    </vehicle>
    <vehicle id="219" type="passenger" depart="103.35">
        <route edges="top0A0.250.00 A0bottom0"/>
    </vehicle>
    <vehicle id="222" type="passenger" depart="105.60">
        <route edges="right0A0.250.00 A0top0"/>
    </vehicle>
    <vehicle id="223" type="passenger" depart="105.75">
        <route edges="right0A0 right0A0.250.00 A0top0"/>
    </vehicle>
    <vehicle id="224" type="passenger" depart="105.90">
        <route edges="top0A0 top0A0.250.00"/>
    </vehicle>
    <vehicle id="225" type="passenger" depart="106.50">
        <route edges="top0A0 top0A0.250.00"/>
    </vehicle>
    <vehicle id="226" type="passenger" depart="106.95">
        <route edges="left0A0.250.00 A0bottom0"/>
    </vehicle>
    <vehicle id="229" type="passenger" depart="107.95">
        <route edges="top0A0 top0A0.250.00"/>
    </vehicle>
    <vehicle id="231" type="passenger" depart="109.65">
        <route edges="right0A0.250.00 A0left0"/>
    </vehicle>
    <vehicle id="232" type="passenger" depart="110.75">
        <route edges="top0A0.250.00 A0left0"/>
    </vehicle>
    <vehicle id="234" type="passenger" depart="111.00">
        <route edges="left0A0.250.00 A0bottom0"/>
    </vehicle>
    <vehicle id="236" type="passenger" depart="112.70">
        <route edges="right0A0 right0A0.250.00 A0top0"/>
    </vehicle>
    <vehicle id="238" type="passenger" depart="112.80">
        <route edges="bottom0A0.250.00 A0right0"/>
    </vehicle>
    <vehicle id="243" type="passenger" depart="115.35">
        <route edges="left0A0.250.00 A0bottom0"/>
    </vehicle>
    <vehicle id="245" type="passenger" depart="116.30">
        <route edges="left0A0.250.00 A0top0"/>
    </vehicle>
    <vehicle id="246" type="passenger" depart="116.85">
        <route edges="right0A0.250.00 A0bottom0"/>
    </vehicle>
    <vehicle id="248" type="passenger" depart="117.05">
        <route edges="bottom0A0 bottom0A0.250.00 A0top0"/>
    </vehicle>
    <vehicle id="250" type="passenger" depart="117.20">
        <route edges="right0A0.250.00"/>
    </vehicle>
    <vehicle id="251" type="passenger" depart="118.30">
        <route edges="top0A0 top0A0.250.00 A0left0"/>
    </vehicle>
    <vehicle id="255" type="passenger" depart="120.40">
        <route edges="top0A0 top0A0.250.00"/>
    </vehicle>
    <vehicle id="256" type="passenger" depart="120.60">
        <route edges="left0A0.250.00"/>
    </vehicle>
    <vehicle id="259" type="passenger" depart="121.40">
        <route edges="bottom0A0.250.00 A0right0"/>
    </vehicle>
    <vehicle id="264" type="passenger" depart="123.45">
        <route edges="right0A0.250.00 A0bottom0"/>
    </vehicle>
    <vehicle id="265" type="passenger" depart="123.80">
        <route edges="right0A0.250.00 A0top0"/>
    </vehicle>
    <vehicle id="266" type="passenger" depart="124.25">
        <route edges="left0A0 left0A0.250.00 A0top0"/>
    </vehicle>
    <vehicle id="269" type="passenger" depart="125.60">
        <route edges="bottom0A0 bottom0A0.250.00 A0top0"/>
    </vehicle>
    <vehicle id="271" type="passenger" depart="126.35">
        <route edges="right0A0 right0A0.250.00 A0bottom0"/>
    </vehicle>
    <vehicle id="274" type="passenger" depart="127.15">
        <route edges="right0A0 right0A0.250.00 A0top0"/>
    </vehicle>
    <vehicle id="276" type="passenger" depart="127.75">
        <route edges="right0A0 right0A0.250.00 A0top0"/>
    </vehicle>
    <vehicle id="277" type="passenger" depart="127.90">
        <route edges="top0A0.250.00 A0right0"/>
    </vehicle>
    <vehicle id="278" type="passenger" depart="128.20">
        <route edges="right0A0 right0A0.250.00 A0left0"/>
    </vehicle>
    <vehicle id="279" type="passenger" depart="128.60">
        <route edges="bottom0A0 bottom0A0.250.00 A0left0"/>
    </vehicle>
    <vehicle id="280" type="passenger" depart="129.65">
        <route edges="left0A0 left0A0.250.00 A0right0"/>
    </vehicle>
    <vehicle id="285" type="passenger" depart="130.40">
        <route edges="left0A0.250.00 A0right0"/>
    </vehicle>
    <vehicle id="286" type="passenger" depart="130.60">
        <route edges="bottom0A0 bottom0A0.250.00 A0top0"/>
    </vehicle>
    <vehicle id="288" type="passenger" depart="131.00">
        <route edges="right0A0.250.00 A0top0"/>
    </vehicle>
    <vehicle id="293" type="passenger" depart="133.00">
        <route edges="top0A0 top0A0.250.00 A0left0"/>
    </vehicle>
    <vehicle id="294" type="passenger" depart="133.15">
        <route edges="left0A0.250.00 A0top0"/>
    </vehicle>
    <vehicle id="296" type="passenger" depart="134.20">
        <route edges="right0A0 right0A0.250.00"/>
    </vehicle>
    <vehicle id="297" type="passenger" depart="134.70">
        <route edges="right0A0.250.00 A0bottom0"/>
    </vehicle>
    <vehicle id="298" type="passenger" depart="135.45">
        <route edges="left0A0.250.00 A0top0"/>
    </vehicle>
    <vehicle id="301" type="passenger" depart="138.20">
        <route edges="top0A0.250.00 A0left0"/>
    </vehicle>
    <vehicle id="303" type="passenger" depart="138.35">
        <route edges="top0A0.250.00 A0right0"/>
    </vehicle>
    <vehicle id="304" type="passenger" depart="138.50">
        <route edges="bottom0A0 bottom0A0.250.00 A0left0"/>
    </vehicle>
    <vehicle id="305" type="passenger" depart="138.50">
        <route edges="bottom0A0.250.00 A0left0"/>
    </vehicle>
    <vehicle id="310" type="passenger" depart="144.50">
        <route edges="top0A0 top0A0.250.00"/>
    </vehicle>
    <vehicle id="311" type="passenger" depart="144.60">
        <route edges="right0A0.250.00 A0left0"/>
    </vehicle>
    <vehicle id="312" type="passenger" depart="146.25">
        <route edges="left0A0.250.00"/>
    </vehicle>
    <vehicle id="316" type="passenger" depart="149.00">
        <route edges="right0A0.250.00 A0left0"/>
    </vehicle>
    <vehicle id="319" type="passenger" depart="149.30">
        <route edges="left0A0.250.00 A0bottom0"/>
    </vehicle>
    <vehicle id="323" type="passenger" depart="151.30">
        <route edges="bottom0A0.250.00"/>
    </vehicle>
    <vehicle id="324" type="passenger" depart="151.95">
        <route edges="left0A0 left0A0.250.00 A0top0"/>
    </vehicle>
    <vehicle id="325" type="passenger" depart="152.60">
        <route edges="bottom0A0.250.00"/>
    </vehicle>
    <vehicle id="326" type="passenger" depart="153.55">
        <route edges="bottom0A0 bottom0A0.250.00 A0top0"/>
    </vehicle>
    <vehicle id="329" type="passenger" depart="154.65">
        <route edges="top0A0.250.00 A0left0"/>
    </vehicle>
    <vehicle id="330" type="passenger" depart="154.70">
        <route edges="top0A0 top0A0.250.00 A0right0"/>
    </vehicle>
    <vehicle id="334" type="passenger" depart="155.85">
        <route edges="top0A0.250.00 A0left0"/>
    </vehicle>
    <vehicle id="336" type="passenger" depart="156.70">
        <route edges="top0A0.250.00 A0right0"/>
    </vehicle>
    <vehicle id="337" type="passenger" depart="157.40">
        <route edges="bottom0A0.250.00 A0left0"/>
    </vehicle>
    <vehicle id="339" type="passenger" depart="158.50">
        <route edges="right0A0 right0A0.250.00 A0top0"/>
    </vehicle>
    <vehicle id="340" type="passenger" depart="158.70">
        <route edges="left0A0 left0A0.250.00 A0right0"/>
    </vehicle>
    <vehicle id="341" type="passenger" depart="158.80">
        <route edges="right0A0.250.00 A0left0"/>
    </vehicle>
    <vehicle id="344" type="passenger" depart="160.50">
        <route edges="left0A0.250.00"/>
    </vehicle>
    <vehicle id="345" type="passenger" depart="160.90">
        <route edges="left0A0 left0A0.250.00"/>
    </vehicle>
    <vehicle id="347" type="passenger" depart="162.00">
        <route edges="top0A0 top0A0.250.00 A0left0"/>
    </vehicle>
    <vehicle id="349" type="passenger" depart="162.80">
        <route edges="top0A0.250.00"/>
    </vehicle>
    <vehicle id="351" type="passenger" depart="165.70">
        <route edges="bottom0A0 bottom0A0.250.00 A0left0"/>
    </vehicle>
    <vehicle id="352" type="passenger" depart="165.85">
        <route edges="left0A0 left0A0.250.00 A0right0"/>
    </vehicle>
    <vehicle id="354" type="passenger" depart="166.00">
        <route edges="top0A0.250.00 A0bottom0"/>
    </vehicle>
    <vehicle id="355" type="passenger" depart="167.55">
        <route edges="top0A0 top0A0.250.00"/>
    </vehicle>
    <vehicle id="359" type="passenger" depart="174.25">
        <route edges="top0A0.250.00 A0right0"/>
    </vehicle>
    <vehicle id="364" type="passenger" depart="176.00">
        <route edges="top0A0 top0A0.250.00 A0right0"/>
    </vehicle>
    <vehicle id="365" type="passenger" depart="176.45">
        <route edges="left0A0 left0A0.250.00 A0bottom0"/>
    </vehicle>
    <vehicle id="367" type="passenger" depart="177.00">
        <route edges="top0A0 top0A0.250.00 A0bottom0"/>
    </vehicle>
    <vehicle id="369" type="passenger" depart="178.00">
        <route edges="bottom0A0 bottom0A0.250.00 A0top0"/>
    </vehicle>
    <vehicle id="373" type="passenger" depart="179.85">
        <route edges="left0A0 left0A0.250.00 A0bottom0"/>
    </vehicle>
    <vehicle id="374" type="passenger" depart="180.00">
        <route edges="left0A0.250.00"/>
    </vehicle>
    <vehicle id="377" type="passenger" depart="180.70">
        <route edges="bottom0A0 bottom0A0.250.00 A0right0"/>
    </vehicle>
    <vehicle id="378" type="passenger" depart="181.45">
        <route edges="top0A0.250.00 A0right0"/>
    </vehicle>
    <vehicle id="379" type="passenger" depart="181.45">
        <route edges="top0A0 top0A0.250.00"/>
    </vehicle>
    <vehicle id="380" type="passenger" depart="181.60">
        <route edges="top0A0.250.00 A0right0"/>
    </vehicle>
    <vehicle id="384" type="passenger" depart="183.90">
        <route edges="right0A0 right0A0.250.00"/>
    </vehicle>
    <vehicle id="392" type="passenger" depart="188.55">
        <route edges="right0A0.250.00 A0bottom0"/>
    </vehicle>
    <vehicle id="395" type="passenger" depart="190.20">
        <route edges="top0A0.250.00 A0left0"/>
    </vehicle>
    <vehicle id="399" type="passenger" depart="191.25">
        <route edges="right0A0 right0A0.250.00 A0top0"/>
    </vehicle>
    <vehicle id="400" type="passenger" depart="191.80">
        <route edges="right0A0 right0A0.250.00 A0left0"/>
    </vehicle>
    <vehicle id="402" type="passenger" depart="192.50">
        <route edges="left0A0 left0A0.250.00"/>
    </vehicle>
    <vehicle id="404" type="passenger" depart="195.05">
        <route edges="top0A0.250.00"/>
    </vehicle>
    <vehicle id="405" type="passenger" depart="197.15">
        <route edges="top0A0 top0A0.250.00 A0right0"/>
    </vehicle>
    <vehicle id="406" type="passenger" depart="197.65">
        <route edges="bottom0A0 bottom0A0.250.00 A0left0"/>
    </vehicle>
    <vehicle id="408" type="passenger" depart="197.85">
        <route edges="top0A0.250.00 A0bottom0"/>
    </vehicle>
    <vehicle id="409" type="passenger" depart="197.90">
        <route edges="left0A0 left0A0.250.00 A0bottom0"/>
    </vehicle>
    <vehicle id="413" type="passenger" depart="201.05">
        <route edges="bottom0A0.250.00 A0left0"/>
    </vehicle>
    <vehicle id="414" type="passenger" depart="201.50">
        <route edges="left0A0 left0A0.250.00 A0bottom0"/>
    </vehicle>
    <vehicle id="417" type="passenger" depart="202.20">
        <route edges="bottom0A0.250.00 A0left0"/>
    </vehicle>
    <vehicle id="419" type="passenger" depart="202.65">
        <route edges="right0A0.250.00 A0top0"/>
    </vehicle>
    <vehicle id="421" type="passenger" depart="204.30">
        <route edges="right0A0.250.00 A0top0"/>
    </vehicle>
    <vehicle id="426" type="passenger" depart="205.45">
        <route edges="right0A0 right0A0.250.00"/>
    </vehicle>
    <vehicle id="431" type="passenger" depart="207.85">
        <route edges="bottom0A0.250.00 A0right0"/>
    </vehicle>
    <vehicle id="436" type="passenger" depart="210.80">
        <route edges="bottom0A0 bottom0A0.250.00"/>
    </vehicle>
    <vehicle id="441" type="passenger" depart="212.00">
        <route edges="top0A0 top0A0.250.00 A0left0"/>
    </vehicle>
    <vehicle id="442" type="passenger" depart="212.45">
        <route edges="bottom0A0.250.00 A0right0"/>
    </vehicle>
    <vehicle id="443" type="passenger" depart="213.45">
        <route edges="top0A0 top0A0.250.00 A0bottom0"/>
    </vehicle>
    <vehicle id="444" type="passenger" depart="215.55">
        <route edges="bottom0A0 bottom0A0.250.00 A0left0"/>
    </vehicle>
    <vehicle id="445" type="passenger" depart="217.05">
        <route edges="left0A0.250.00 A0top0"/>
    </vehicle>
    <vehicle id="448" type="passenger" depart="218.40">
        <route edges="left0A0.250.00 A0right0"/>
    </vehicle>
    <vehicle id="453" type="passenger" depart="220.60">
        <route edges="right0A0.250.00"/>
    </vehicle>
    <vehicle id="454" type="passenger" depart="220.60">
        <route edges="top0A0.250.00 A0left0"/>
    </vehicle>
    <vehicle id="456" type="passenger" depart="222.40">
        <route edges="right0A0.250.00 A0bottom0"/>
    </vehicle>
    <vehicle id="457" type="passenger" depart="222.95">
        <route edges="right0A0 right0A0.250.00 A0top0"/>
    </vehicle>
    <vehicle id="458" type="passenger" depart="224.00">
        <route edges="left0A0 left0A0.250.00 A0right0"/>
    </vehicle>
    <vehicle id="461" type="passenger" depart="225.45">
        <route edges="bottom0A0 bottom0A0.250.00"/>
    </vehicle>
    <vehicle id="462" type="passenger" depart="225.70">
        <route edges="left0A0.250.00"/>
    </vehicle>
    <vehicle id="463" type="passenger" depart="226.00">
        <route edges="top0A0.250.00"/>
    </vehicle>
    <vehicle id="467" type="passenger" depart="228.50">
        <route edges="bottom0A0.250.00"/>
    </vehicle>
    <vehicle id="468" type="passenger" depart="228.75">
        <route edges="right0A0 right0A0.250.00 A0bottom0"/>
    </vehicle>