<?xml version="1.0" encoding="UTF-8"?>

<!-- generated on 2023-04-26 16:56:44.928353 by randomTrips.py UNKNOWN
<configuration>
    <begin value="0"/>
    <end value="900"/>
    <insertion-rate value="8000.0"/>
    <net-file value="/home/franky3er/Documents/code/HieraGLight/scenarios/grid/1x1-500m/train/26-scenario/network.net.xml"/>
    <random value="True"/>
    <random-depart value="True"/>
    <route-file value="/home/franky3er/Documents/code/HieraGLight/scenarios/grid/1x1-500m/train/26-scenario/routes.rou.xml"/>
    <seed value="26"/>
    <output-trip-file value="/home/franky3er/Documents/code/HieraGLight/scenarios/grid/1x1-500m/train/26-scenario/trips.trips.xml"/>
    <vehicle-class value="passenger"/>
</configuration>
-->

<!-- generated on 2023-04-26 16:56:44 by Eclipse SUMO duarouter Version 1.16.0
<configuration xmlns:xsi="http://www.w3.org/2001/XMLSchema-instance" xsi:noNamespaceSchemaLocation="http://sumo.dlr.de/xsd/duarouterConfiguration.xsd">

    <input>
        <net-file value="/home/franky3er/Documents/code/HieraGLight/scenarios/grid/1x1-500m/train/26-scenario/network.net.xml"/>
        <route-files value="/home/franky3er/Documents/code/HieraGLight/scenarios/grid/1x1-500m/train/26-scenario/trips.trips.xml"/>
    </input>

    <output>
        <output-file value="/home/franky3er/Documents/code/HieraGLight/scenarios/grid/1x1-500m/train/26-scenario/routes.rou.xml"/>
        <alternatives-output value="NUL"/>
    </output>

    <time>
        <begin value="0"/>
        <end value="900"/>
    </time>

    <report>
        <no-warnings value="true"/>
        <ignore-errors value="true"/>
        <no-step-log value="true"/>
    </report>

</configuration>
-->

<routes xmlns:xsi="http://www.w3.org/2001/XMLSchema-instance" xsi:noNamespaceSchemaLocation="http://sumo.dlr.de/xsd/routes_file.xsd">
    <vType id="passenger" vClass="passenger"/>
    <vehicle id="0" type="passenger" depart="0.65">
        <route edges="left0A0 left0A0.250.00"/>
    </vehicle>
    <vehicle id="2" type="passenger" depart="1.35">
        <route edges="left0A0.250.00 A0top0"/>
    </vehicle>
    <vehicle id="4" type="passenger" depart="1.70">
        <route edges="top0A0 top0A0.250.00"/>
    </vehicle>
    <vehicle id="7" type="passenger" depart="2.30">
        <route edges="top0A0.250.00 A0right0"/>
    </vehicle>
    <vehicle id="8" type="passenger" depart="3.25">
        <route edges="bottom0A0.250.00 A0left0"/>
    </vehicle>
    <vehicle id="9" type="passenger" depart="3.50">
        <route edges="bottom0A0.250.00 A0left0"/>
    </vehicle>
    <vehicle id="11" type="passenger" depart="5.70">
        <route edges="bottom0A0 bottom0A0.250.00"/>
    </vehicle>
    <vehicle id="14" type="passenger" depart="9.85">
        <route edges="top0A0 top0A0.250.00"/>
    </vehicle>
    <vehicle id="15" type="passenger" depart="10.55">
        <route edges="bottom0A0 bottom0A0.250.00"/>
    </vehicle>
    <vehicle id="17" type="passenger" depart="12.20">
        <route edges="top0A0.250.00"/>
    </vehicle>
    <vehicle id="18" type="passenger" depart="12.55">
        <route edges="left0A0 left0A0.250.00"/>
    </vehicle>
    <vehicle id="22" type="passenger" depart="13.10">
        <route edges="right0A0.250.00 A0bottom0"/>
    </vehicle>
    <vehicle id="23" type="passenger" depart="13.50">
        <route edges="left0A0.250.00 A0right0"/>
    </vehicle>
    <vehicle id="26" type="passenger" depart="14.45">
        <route edges="left0A0 left0A0.250.00"/>
    </vehicle>
    <vehicle id="27" type="passenger" depart="15.25">
        <route edges="right0A0.250.00 A0bottom0"/>
    </vehicle>
    <vehicle id="28" type="passenger" depart="15.30">
        <route edges="left0A0.250.00 A0right0"/>
    </vehicle>
    <vehicle id="31" type="passenger" depart="17.55">
        <route edges="bottom0A0.250.00 A0right0"/>
    </vehicle>
    <vehicle id="35" type="passenger" depart="20.20">
        <route edges="bottom0A0.250.00 A0left0"/>
    </vehicle>
    <vehicle id="36" type="passenger" depart="20.25">
        <route edges="bottom0A0 bottom0A0.250.00 A0left0"/>
    </vehicle>
    <vehicle id="38" type="passenger" depart="20.70">
        <route edges="right0A0.250.00 A0bottom0"/>
    </vehicle>
    <vehicle id="40" type="passenger" depart="21.50">
        <route edges="right0A0.250.00 A0bottom0"/>
    </vehicle>
    <vehicle id="44" type="passenger" depart="23.05">
        <route edges="top0A0.250.00"/>
    </vehicle>
    <vehicle id="48" type="passenger" depart="26.35">
        <route edges="right0A0.250.00 A0left0"/>
    </vehicle>
    <vehicle id="51" type="passenger" depart="26.55">
        <route edges="right0A0.250.00 A0bottom0"/>
    </vehicle>
    <vehicle id="53" type="passenger" depart="27.95">
        <route edges="top0A0.250.00 A0right0"/>
    </vehicle>
    <vehicle id="54" type="passenger" depart="28.25">
        <route edges="right0A0 right0A0.250.00 A0left0"/>
    </vehicle>
    <vehicle id="56" type="passenger" depart="28.45">
        <route edges="top0A0 top0A0.250.00 A0right0"/>
    </vehicle>
    <vehicle id="57" type="passenger" depart="28.80">
        <route edges="left0A0 left0A0.250.00 A0bottom0"/>
    </vehicle>
    <vehicle id="59" type="passenger" depart="30.85">
        <route edges="top0A0 top0A0.250.00 A0left0"/>
    </vehicle>
    <vehicle id="62" type="passenger" depart="32.50">
        <route edges="bottom0A0.250.00 A0top0"/>
    </vehicle>
    <vehicle id="64" type="passenger" depart="33.00">
        <route edges="bottom0A0.250.00 A0top0"/>
    </vehicle>
    <vehicle id="67" type="passenger" depart="34.50">
        <route edges="right0A0 right0A0.250.00 A0bottom0"/>
    </vehicle>
    <vehicle id="69" type="passenger" depart="34.70">
        <route edges="bottom0A0 bottom0A0.250.00"/>
    </vehicle>
    <vehicle id="72" type="passenger" depart="35.20">
        <route edges="top0A0 top0A0.250.00"/>
    </vehicle>
    <vehicle id="74" type="passenger" depart="36.05">
        <route edges="top0A0 top0A0.250.00 A0left0"/>
    </vehicle>
    <vehicle id="78" type="passenger" depart="36.90">
        <route edges="top0A0.250.00"/>
    </vehicle>
    <vehicle id="79" type="passenger" depart="37.55">
        <route edges="bottom0A0.250.00"/>
    </vehicle>
    <vehicle id="80" type="passenger" depart="37.65">
        <route edges="top0A0.250.00 A0right0"/>
    </vehicle>
    <vehicle id="81" type="passenger" depart="37.75">
        <route edges="right0A0.250.00 A0left0"/>
    </vehicle>
    <vehicle id="83" type="passenger" depart="38.10">
        <route edges="right0A0.250.00 A0top0"/>
    </vehicle>
    <vehicle id="85" type="passenger" depart="38.55">
        <route edges="right0A0 right0A0.250.00"/>
    </vehicle>
    <vehicle id="87" type="passenger" depart="39.80">
        <route edges="right0A0 right0A0.250.00"/>
    </vehicle>
    <vehicle id="89" type="passenger" depart="41.35">
        <route edges="top0A0 top0A0.250.00"/>
    </vehicle>
    <vehicle id="90" type="passenger" depart="41.35">
        <route edges="left0A0 left0A0.250.00"/>
    </vehicle>
    <vehicle id="91" type="passenger" depart="41.70">
        <route edges="bottom0A0.250.00 A0left0"/>
    </vehicle>
    <vehicle id="92" type="passenger" depart="42.65">
        <route edges="bottom0A0 bottom0A0.250.00"/>
    </vehicle>
    <vehicle id="93" type="passenger" depart="43.45">
        <route edges="bottom0A0.250.00 A0top0"/>
    </vehicle>
    <vehicle id="94" type="passenger" depart="43.60">
        <route edges="top0A0 top0A0.250.00 A0bottom0"/>
    </vehicle>
    <vehicle id="95" type="passenger" depart="44.20">
        <route edges="right0A0.250.00 A0bottom0"/>
    </vehicle>
    <vehicle id="96" type="passenger" depart="44.40">
        <route edges="left0A0.250.00 A0top0"/>
    </vehicle>
    <vehicle id="97" type="passenger" depart="44.45">
        <route edges="top0A0 top0A0.250.00"/>
    </vehicle>
    <vehicle id="98" type="passenger" depart="44.50">
        <route edges="bottom0A0 bottom0A0.250.00"/>
    </vehicle>
    <vehicle id="101" type="passenger" depart="45.45">
        <route edges="left0A0 left0A0.250.00 A0bottom0"/>
    </vehicle>
    <vehicle id="103" type="passenger" depart="46.60">
        <route edges="right0A0.250.00 A0bottom0"/>
    </vehicle>
    <vehicle id="104" type="passenger" depart="47.25">
        <route edges="left0A0 left0A0.250.00 A0right0"/>
    </vehicle>
    <vehicle id="105" type="passenger" depart="47.30">
        <route edges="top0A0 top0A0.250.00 A0right0"/>
    </vehicle>
    <vehicle id="107" type="passenger" depart="48.90">
        <route edges="bottom0A0 bottom0A0.250.00 A0left0"/>
    </vehicle>
    <vehicle id="108" type="passenger" depart="51.10">
        <route edges="bottom0A0 bottom0A0.250.00 A0top0"/>
    </vehicle>
    <vehicle id="109" type="passenger" depart="51.25">
        <route edges="bottom0A0 bottom0A0.250.00 A0left0"/>
    </vehicle>
    <vehicle id="112" type="passenger" depart="52.45">
        <route edges="top0A0 top0A0.250.00 A0bottom0"/>
    </vehicle>
    <vehicle id="113" type="passenger" depart="52.65">
        <route edges="right0A0.250.00 A0bottom0"/>
    </vehicle>
    <vehicle id="114" type="passenger" depart="53.55">
        <route edges="top0A0.250.00 A0right0"/>
    </vehicle>
    <vehicle id="115" type="passenger" depart="54.20">
        <route edges="left0A0 left0A0.250.00 A0top0"/>
    </vehicle>
    <vehicle id="117" type="passenger" depart="54.90">
        <route edges="top0A0.250.00 A0bottom0"/>
    </vehicle>
    <vehicle id="120" type="passenger" depart="55.80">
        <route edges="bottom0A0.250.00 A0right0"/>
    </vehicle>
    <vehicle id="121" type="passenger" depart="56.45">
        <route edges="right0A0.250.00 A0bottom0"/>
    </vehicle>
    <vehicle id="122" type="passenger" depart="57.00">
        <route edges="left0A0.250.00 A0top0"/>
    </vehicle>
    <vehicle id="123" type="passenger" depart="57.15">
        <route edges="top0A0.250.00 A0bottom0"/>
    </vehicle>
    <vehicle id="126" type="passenger" depart="57.85">
        <route edges="bottom0A0.250.00 A0right0"/>
    </vehicle>
    <vehicle id="130" type="passenger" depart="58.40">
        <route edges="left0A0.250.00 A0top0"/>
    </vehicle>
    <vehicle id="132" type="passenger" depart="59.00">
        <route edges="left0A0.250.00 A0top0"/>
    </vehicle>
    <vehicle id="134" type="passenger" depart="59.40">
        <route edges="right0A0.250.00"/>
    </vehicle>
    <vehicle id="135" type="passenger" depart="59.70">
        <route edges="right0A0.250.00 A0top0"/>
    </vehicle>
    <vehicle id="136" type="passenger" depart="60.05">
        <route edges="left0A0 left0A0.250.00"/>
    </vehicle>
    <vehicle id="137" type="passenger" depart="60.65">
        <route edges="top0A0 top0A0.250.00 A0right0"/>
    </vehicle>
    <vehicle id="139" type="passenger" depart="60.90">
        <route edges="left0A0 left0A0.250.00 A0top0"/>
    </vehicle>
    <vehicle id="142" type="passenger" depart="62.10">
        <route edges="left0A0 left0A0.250.00 A0bottom0"/>
    </vehicle>
    <vehicle id="143" type="passenger" depart="62.20">
        <route edges="bottom0A0 bottom0A0.250.00"/>
    </vehicle>
    <vehicle id="146" type="passenger" depart="62.50">
        <route edges="top0A0.250.00"/>
    </vehicle>
    <vehicle id="149" type="passenger" depart="64.00">
        <route edges="right0A0.250.00 A0bottom0"/>
    </vehicle>
    <vehicle id="153" type="passenger" depart="65.15">
        <route edges="left0A0.250.00 A0right0"/>
    </vehicle>
    <vehicle id="155" type="passenger" depart="67.30">
        <route edges="top0A0 top0A0.250.00 A0bottom0"/>
    </vehicle>
    <vehicle id="157" type="passenger" depart="67.95">
        <route edges="right0A0.250.00"/>
    </vehicle>
    <vehicle id="158" type="passenger" depart="68.25">
        <route edges="left0A0.250.00 A0right0"/>
    </vehicle>
    <vehicle id="159" type="passenger" depart="69.55">
        <route edges="left0A0 left0A0.250.00"/>
    </vehicle>
    <vehicle id="162" type="passenger" depart="70.60">
        <route edges="bottom0A0.250.00 A0top0"/>
    </vehicle>
    <vehicle id="163" type="passenger" depart="70.85">
        <route edges="bottom0A0.250.00"/>
    </vehicle>
    <vehicle id="164" type="passenger" depart="71.55">
        <route edges="bottom0A0 bottom0A0.250.00 A0top0"/>
    </vehicle>
    <vehicle id="165" type="passenger" depart="71.55">
        <route edges="bottom0A0.250.00"/>
    </vehicle>
    <vehicle id="167" type="passenger" depart="71.65">
        <route edges="right0A0 right0A0.250.00"/>
    </vehicle>
    <vehicle id="168" type="passenger" depart="71.75">
        <route edges="right0A0.250.00 A0bottom0"/>
    </vehicle>
    <vehicle id="169" type="passenger" depart="71.90">
        <route edges="left0A0 left0A0.250.00"/>
    </vehicle>
    <vehicle id="170" type="passenger" depart="72.80">
        <route edges="left0A0 left0A0.250.00 A0right0"/>
    </vehicle>
    <vehicle id="172" type="passenger" depart="73.45">
        <route edges="right0A0.250.00 A0left0"/>
    </vehicle>
    <vehicle id="176" type="passenger" depart="74.90">
        <route edges="top0A0 top0A0.250.00 A0bottom0"/>
    </vehicle>
    <vehicle id="177" type="passenger" depart="74.95">
        <route edges="right0A0 right0A0.250.00 A0left0"/>
    </vehicle>
    <vehicle id="178" type="passenger" depart="75.20">
        <route edges="right0A0.250.00"/>
    </vehicle>
    <vehicle id="179" type="passenger" depart="75.90">
        <route edges="top0A0 top0A0.250.00 A0right0"/>
    </vehicle>
    <vehicle id="180" type="passenger" depart="76.25">
        <route edges="top0A0.250.00"/>
    </vehicle>
    <vehicle id="182" type="passenger" depart="77.70">
        <route edges="top0A0.250.00 A0left0"/>
    </vehicle>
    <vehicle id="185" type="passenger" depart="78.10">
        <route edges="right0A0 right0A0.250.00 A0bottom0"/>
    </vehicle>
    <vehicle id="186" type="passenger" depart="78.15">
        <route edges="top0A0 top0A0.250.00"/>
    </vehicle>
    <vehicle id="187" type="passenger" depart="79.15">
        <route edges="left0A0.250.00 A0right0"/>
    </vehicle>
    <vehicle id="189" type="passenger" depart="79.90">
        <route edges="right0A0.250.00 A0bottom0"/>
    </vehicle>
    <vehicle id="194" type="passenger" depart="81.65">
        <route edges="left0A0 left0A0.250.00 A0right0"/>
    </vehicle>
    <vehicle id="195" type="passenger" depart="82.25">
        <route edges="bottom0A0 bottom0A0.250.00 A0left0"/>
    </vehicle>
    <vehicle id="199" type="passenger" depart="83.35">
        <route edges="left0A0.250.00 A0top0"/>
    </vehicle>
    <vehicle id="200" type="passenger" depart="83.45">
        <route edges="bottom0A0.250.00 A0top0"/>
    </vehicle>
    <vehicle id="205" type="passenger" depart="84.75">
        <route edges="bottom0A0 bottom0A0.250.00 A0top0"/>
    </vehicle>
    <vehicle id="207" type="passenger" depart="85.20">
        <route edges="left0A0 left0A0.250.00 A0top0"/>
    </vehicle>
    <vehicle id="210" type="passenger" depart="87.25">
        <route edges="bottom0A0.250.00 A0left0"/>
    </vehicle>
    <vehicle id="212" type="passenger" depart="88.65">
        <route edges="bottom0A0.250.00 A0left0"/>
    </vehicle>
    <vehicle id="215" type="passenger" depart="91.90">
        <route edges="left0A0.250.00"/>
    </vehicle>
    <vehicle id="217" type="passenger" depart="92.50">
        <route edges="top0A0 top0A0.250.00 A0bottom0"/>
    </vehicle>
    <vehicle id="220" type="passenger" depart="93.85">
        <route edges="bottom0A0 bottom0A0.250.00"/>
    </vehicle>
    <vehicle id="232" type="passenger" depart="101.10">
        <route edges="left0A0.250.00"/>
    </vehicle>
    <vehicle id="235" type="passenger" depart="102.85">
        <route edges="bottom0A0.250.00 A0right0"/>
    </vehicle>
    <vehicle id="236" type="passenger" depart="103.10">
        <route edges="top0A0.250.00 A0left0"/>
    </vehicle>
    <vehicle id="237" type="passenger" depart="103.20">
        <route edges="top0A0 top0A0.250.00 A0left0"/>
    </vehicle>
    <vehicle id="242" type="passenger" depart="104.55">
        <route edges="top0A0 top0A0.250.00"/>
    </vehicle>
    <vehicle id="243" type="passenger" depart="105.25">
        <route edges="left0A0 left0A0.250.00 A0right0"/>
    </vehicle>
    <vehicle id="244" type="passenger" depart="106.05">
        <route edges="bottom0A0.250.00"/>
    </vehicle>
    <vehicle id="245" type="passenger" depart="106.30">
        <route edges="left0A0.250.00 A0bottom0"/>
    </vehicle>
    <vehicle id="247" type="passenger" depart="107.20">
        <route edges="right0A0.250.00 A0bottom0"/>
    </vehicle>
    <vehicle id="249" type="passenger" depart="108.25">
        <route edges="right0A0 right0A0.250.00 A0bottom0"/>
    </vehicle>
    <vehicle id="251" type="passenger" depart="108.70">
        <route edges="right0A0 right0A0.250.00 A0top0"/>
    </vehicle>
    <vehicle id="252" type="passenger" depart="108.75">
        <route edges="bottom0A0.250.00"/>
    </vehicle>
    <vehicle id="253" type="passenger" depart="108.80">
        <route edges="bottom0A0.250.00"/>
    </vehicle>
    <vehicle id="254" type="passenger" depart="109.80">
        <route edges="left0A0 left0A0.250.00 A0top0"/>
    </vehicle>
    <vehicle id="255" type="passenger" depart="110.65">
        <route edges="top0A0 top0A0.250.00 A0left0"/>
    </vehicle>
    <vehicle id="256" type="passenger" depart="111.15">
        <route edges="top0A0.250.00"/>
    </vehicle>
    <vehicle id="258" type="passenger" depart="113.20">
        <route edges="top0A0.250.00 A0bottom0"/>
    </vehicle>
    <vehicle id="259" type="passenger" depart="114.85">
        <route edges="left0A0 left0A0.250.00 A0right0"/>
    </vehicle>
    <vehicle id="260" type="passenger" depart="114.90">
        <route edges="top0A0.250.00"/>
    </vehicle>
    <vehicle id="266" type="passenger" depart="117.40">
        <route edges="top0A0 top0A0.250.00 A0left0"/>
    </vehicle>
    <vehicle id="267" type="passenger" depart="117.45">
        <route edges="left0A0 left0A0.250.00 A0top0"/>
    </vehicle>
    <vehicle id="270" type="passenger" depart="117.70">
        <route edges="left0A0.250.00"/>
    </vehicle>
    <vehicle id="271" type="passenger" depart="117.85">
        <route edges="bottom0A0.250.00 A0top0"/>
    </vehicle>
    <vehicle id="275" type="passenger" depart="119.75">
        <route edges="right0A0.250.00 A0top0"/>
    </vehicle>
    <vehicle id="276" type="passenger" depart="119.75">
        <route edges="bottom0A0 bottom0A0.250.00"/>
    </vehicle>
    <vehicle id="277" type="passenger" depart="119.80">
        <route edges="bottom0A0 bottom0A0.250.00"/>
    </vehicle>
    <vehicle id="278" type="passenger" depart="119.90">
        <route edges="bottom0A0.250.00 A0left0"/>
    </vehicle>
    <vehicle id="280" type="passenger" depart="120.50">
        <route edges="right0A0 right0A0.250.00 A0top0"/>
    </vehicle>
    <vehicle id="282" type="passenger" depart="121.05">
        <route edges="bottom0A0 bottom0A0.250.00 A0left0"/>
    </vehicle>
    <vehicle id="284" type="passenger" depart="122.90">
        <route edges="right0A0.250.00 A0bottom0"/>
    </vehicle>
    <vehicle id="287" type="passenger" depart="124.30">
        <route edges="top0A0.250.00 A0left0"/>
    </vehicle>
    <vehicle id="290" type="passenger" depart="125.10">
        <route edges="bottom0A0 bottom0A0.250.00 A0right0"/>
    </vehicle>
    <vehicle id="291" type="passenger" depart="125.15">
        <route edges="right0A0.250.00 A0left0"/>
    </vehicle>
    <vehicle id="292" type="passenger" depart="125.75">
        <route edges="top0A0 top0A0.250.00 A0bottom0"/>
    </vehicle>
    <vehicle id="293" type="passenger" depart="125.85">
        <route edges="right0A0 right0A0.250.00 A0bottom0"/>
    </vehicle>
    <vehicle id="294" type="passenger" depart="125.85">
        <route edges="right0A0.250.00 A0top0"/>
    </vehicle>
    <vehicle id="297" type="passenger" depart="127.55">
        <route edges="left0A0.250.00 A0top0"/>
    </vehicle>
    <vehicle id="298" type="passenger" depart="128.35">
        <route edges="left0A0 left0A0.250.00 A0top0"/>
    </vehicle>
    <vehicle id="301" type="passenger" depart="129.45">
        <route edges="bottom0A0 bottom0A0.250.00 A0right0"/>
    </vehicle>
    <vehicle id="302" type="passenger" depart="129.65">
        <route edges="top0A0 top0A0.250.00 A0bottom0"/>
    </vehicle>
    <vehicle id="303" type="passenger" depart="129.85">
        <route edges="top0A0.250.00 A0left0"/>
    </vehicle>
    <vehicle id="305" type="passenger" depart="130.25">
        <route edges="top0A0 top0A0.250.00"/>
    </vehicle>
    <vehicle id="311" type="passenger" depart="132.70">
        <route edges="right0A0.250.00 A0bottom0"/>
    </vehicle>
    <vehicle id="313" type="passenger" depart="134.35">
        <route edges="top0A0 top0A0.250.00"/>
    </vehicle>
    <vehicle id="314" type="passenger" depart="134.45">
        <route edges="bottom0A0 bottom0A0.250.00 A0right0"/>
    </vehicle>
    <vehicle id="315" type="passenger" depart="134.65">
        <route edges="bottom0A0 bottom0A0.250.00 A0right0"/>
    </vehicle>
    <vehicle id="317" type="passenger" depart="135.95">
        <route edges="top0A0.250.00"/>
    </vehicle>
    <vehicle id="319" type="passenger" depart="136.65">
        <route edges="right0A0.250.00 A0top0"/>
    </vehicle>
    <vehicle id="322" type="passenger" depart="140.55">
        <route edges="bottom0A0.250.00 A0right0"/>
    </vehicle>
    <vehicle id="325" type="passenger" depart="141.40">
        <route edges="bottom0A0.250.00"/>
    </vehicle>
    <vehicle id="327" type="passenger" depart="142.60">
        <route edges="top0A0 top0A0.250.00"/>
    </vehicle>
    <vehicle id="329" type="passenger" depart="143.70">
        <route edges="top0A0.250.00 A0bottom0"/>
    </vehicle>
    <vehicle id="330" type="passenger" depart="144.30">
        <route edges="right0A0 right0A0.250.00 A0left0"/>
    </vehicle>
    <vehicle id="331" type="passenger" depart="144.70">
        <route edges="top0A0 top0A0.250.00 A0bottom0"/>
    </vehicle>
    <vehicle id="334" type="passenger" depart="145.20">
        <route edges="bottom0A0.250.00 A0left0"/>
    </vehicle>
    <vehicle id="338" type="passenger" depart="146.35">
        <route edges="right0A0.250.00 A0top0"/>
    </vehicle>
    <vehicle id="341" type="passenger" depart="146.90">
        <route edges="top0A0.250.00 A0right0"/>
    </vehicle>
    <vehicle id="342" type="passenger" depart="146.95">
        <route edges="left0A0.250.00 A0top0"/>
    </vehicle>
    <vehicle id="346" type="passenger" depart="148.05">
        <route edges="bottom0A0 bottom0A0.250.00 A0left0"/>
    </vehicle>
    <vehicle id="350" type="passenger" depart="149.50">
        <route edges="top0A0 top0A0.250.00 A0left0"/>
    </vehicle>
    <vehicle id="351" type="passenger" depart="151.60">
        <route edges="bottom0A0.250.00"/>
    </vehicle>
    <vehicle id="352" type="passenger" depart="153.95">
        <route edges="right0A0 right0A0.250.00"/>
    </vehicle>
    <vehicle id="355" type="passenger" depart="156.00">
        <route edges="top0A0 top0A0.250.00 A0right0"/>
    </vehicle>
    <vehicle id="358" type="passenger" depart="157.50">
        <route edges="bottom0A0.250.00"/>
    </vehicle>
    <vehicle id="360" type="passenger" depart="162.10">
        <route edges="right0A0 right0A0.250.00"/>
    </vehicle>
    <vehicle id="362" type="passenger" depart="162.70">
        <route edges="left0A0.250.00 A0right0"/>
    </vehicle>
    <vehicle id="363" type="passenger" depart="163.00">
        <route edges="right0A0 right0A0.250.00 A0bottom0"/>
    </vehicle>
    <vehicle id="364" type="passenger" depart="163.25">
        <route edges="bottom0A0 bottom0A0.250.00 A0right0"/>
    </vehicle>
    <vehicle id="365" type="passenger" depart="164.05">
        <route edges="top0A0.250.00"/>
    </vehicle>
    <vehicle id="371" type="passenger" depart="167.25">
        <route edges="top0A0 top0A0.250.00 A0right0"/>
    </vehicle>
    <vehicle id="373" type="passenger" depart="167.80">
        <route edges="left0A0.250.00"/>
    </vehicle>
    <vehicle id="376" type="passenger" depart="169.20">
        <route edges="left0A0.250.00 A0bottom0"/>
    </vehicle>
    <vehicle id="377" type="passenger" depart="170.45">
        <route edges="right0A0 right0A0.250.00"/>
    </vehicle>
    <vehicle id="378" type="passenger" depart="170.70">
        <route edges="bottom0A0.250.00 A0right0"/>
    </vehicle>
    <vehicle id="379" type="passenger" depart="171.90">
        <route edges="top0A0.250.00 A0left0"/>
    </vehicle>
    <vehicle id="380" type="passenger" depart="172.60">
        <route edges="left0A0.250.00 A0right0"/>
    </vehicle>
    <vehicle id="381" type="passenger" depart="172.95">
        <route edges="left0A0 left0A0.250.00"/>
    </vehicle>
    <vehicle id="383" type="passenger" depart="173.65">
        <route edges="top0A0.250.00 A0right0"/>
    </vehicle>
    <vehicle id="384" type="passenger" depart="174.25">
        <route edges="bottom0A0 bottom0A0.250.00 A0left0"/>
    </vehicle>
    <vehicle id="388" type="passenger" depart="176.05">
        <route edges="bottom0A0 bottom0A0.250.00 A0top0"/>
    </vehicle>
    <vehicle id="389" type="passenger" depart="176.15">
        <route edges="bottom0A0 bottom0A0.250.00 A0top0"/>
    </vehicle>
    <vehicle id="390" type="passenger" depart="176.30">
        <route edges="top0A0.250.00 A0right0"/>
    </vehicle>
    <vehicle id="391" type="passenger" depart="176.35">
        <route edges="left0A0 left0A0.250.00 A0right0"/>
    </vehicle>
    <vehicle id="392" type="passenger" depart="176.60">
        <route edges="top0A0.250.00 A0right0"/>
    </vehicle>
    <vehicle id="394" type="passenger" depart="177.35">
        <route edges="left0A0.250.00 A0top0"/>
    </vehicle>
    <vehicle id="395" type="passenger" depart="177.85">
        <route edges="bottom0A0 bottom0A0.250.00"/>
    </vehicle>
    <vehicle id="398" type="passenger" depart="178.40">
        <route edges="left0A0 left0A0.250.00 A0right0"/>
    </vehicle>
    <vehicle id="399" type="passenger" depart="178.75">
        <route edges="bottom0A0.250.00 A0left0"/>
    </vehicle>
    <vehicle id="402" type="passenger" depart="179.95">
        <route edges="bottom0A0.250.00"/>
    </vehicle>
    <vehicle id="403" type="passenger" depart="180.15">
        <route edges="top0A0 top0A0.250.00"/>
    </vehicle>
    <vehicle id="404" type="passenger" depart="180.75">
        <route edges="top0A0.250.00"/>
    </vehicle>
    <vehicle id="406" type="passenger" depart="181.70">
        <route edges="right0A0 right0A0.250.00 A0top0"/>
    </vehicle>
    <vehicle id="407" type="passenger" depart="181.75">
        <route edges="top0A0.250.00 A0bottom0"/>
    </vehicle>
    <vehicle id="410" type="passenger" depart="183.40">
        <route edges="right0A0.250.00 A0left0"/>
    </vehicle>
    <vehicle id="412" type="passenger" depart="183.50">
        <route edges="bottom0A0.250.00 A0left0"/>
    </vehicle>
    <vehicle id="417" type="passenger" depart="186.85">
        <route edges="right0A0 right0A0.250.00 A0top0"/>
    </vehicle>
    <vehicle id="420" type="passenger" depart="187.45">
        <route edges="right0A0 right0A0.250.00 A0bottom0"/>
    </vehicle>
    <vehicle id="421" type="passenger" depart="187.55">
        <route edges="top0A0 top0A0.250.00 A0bottom0"/>
    </vehicle>
    <vehicle id="422" type="passenger" depart="187.75">
        <route edges="bottom0A0 bottom0A0.250.00 A0right0"/>
    </vehicle>
    <vehicle id="423" type="passenger" depart="187.90">
        <route edges="bottom0A0 bottom0A0.250.00 A0top0"/>
    </vehicle>
    <vehicle id="426" type="passenger" depart="188.55">
        <route edges="bottom0A0.250.00 A0left0"/>
    </vehicle>
    <vehicle id="427" type="passenger" depart="188.90">
        <route edges="top0A0 top0A0.250.00"/>
    </vehicle>
    <vehicle id="428" type="passenger" depart="189.10">
        <route edges="right0A0 right0A0.250.00 A0left0"/>
    </vehicle>
    <vehicle id="431" type="passenger" depart="190.90">
        <route edges="right0A0 right0A0.250.00 A0bottom0"/>
    </vehicle>
    <vehicle id="434" type="passenger" depart="191.70">
        <route edges="bottom0A0 bottom0A0.250.00"/>
    </vehicle>
    <vehicle id="435" type="passenger" depart="192.45">
        <route edges="bottom0A0.250.00 A0right0"/>
    </vehicle>
    <vehicle id="436" type="passenger" depart="193.30">
        <route edges="top0A0 top0A0.250.00 A0bottom0"/>
    </vehicle>
    <vehicle id="437" type="passenger" depart="194.50">
        <route edges="top0A0.250.00 A0bottom0"/>
    </vehicle>
    <vehicle id="438" type="passenger" depart="195.10">
        <route edges="left0A0 left0A0.250.00 A0bottom0"/>
    </vehicle>
    <vehicle id="439" type="passenger" depart="195.55">
        <route edges="right0A0 right0A0.250.00 A0left0"/>
    </vehicle>
    <vehicle id="441" type="passenger" depart="196.00">
        <route edges="left0A0 left0A0.250.00 A0top0"/>
    </vehicle>
    <vehicle id="442" type="passenger" depart="196.00">
        <route edges="left0A0.250.00 A0top0"/>
    </vehicle>
    <vehicle id="443" type="passenger" depart="196.20">
        <route edges="top0A0.250.00"/>
    </vehicle>
    <vehicle id="449" type="passenger" depart="199.15">
        <route edges="right0A0 right0A0.250.00 A0left0"/>
    </vehicle>
    <vehicle id="450" type="passenger" depart="199.45">
        <route edges="left0A0.250.00 A0top0"/>
    </vehicle>
    <vehicle id="454" type="passenger" depart="201.35">
        <route edges="top0A0.250.00 A0left0"/>
    </vehicle>
    <vehicle id="458" type="passenger" depart="203.15">
        <route edges="top0A0 top0A0.250.00 A0right0"/>
    </vehicle>