<?xml version="1.0" encoding="UTF-8"?>

<!-- generated on 2023-04-26 16:56:49.800396 by randomTrips.py UNKNOWN
<configuration>
    <begin value="0"/>
    <end value="900"/>
    <insertion-rate value="8000.0"/>
    <net-file value="/home/franky3er/Documents/code/HieraGLight/scenarios/grid/1x1-500m/train/38-scenario/network.net.xml"/>
    <random value="True"/>
    <random-depart value="True"/>
    <route-file value="/home/franky3er/Documents/code/HieraGLight/scenarios/grid/1x1-500m/train/38-scenario/routes.rou.xml"/>
    <seed value="38"/>
    <output-trip-file value="/home/franky3er/Documents/code/HieraGLight/scenarios/grid/1x1-500m/train/38-scenario/trips.trips.xml"/>
    <vehicle-class value="passenger"/>
</configuration>
-->

<!-- generated on 2023-04-26 16:56:49 by Eclipse SUMO duarouter Version 1.16.0
<configuration xmlns:xsi="http://www.w3.org/2001/XMLSchema-instance" xsi:noNamespaceSchemaLocation="http://sumo.dlr.de/xsd/duarouterConfiguration.xsd">

    <input>
        <net-file value="/home/franky3er/Documents/code/HieraGLight/scenarios/grid/1x1-500m/train/38-scenario/network.net.xml"/>
        <route-files value="/home/franky3er/Documents/code/HieraGLight/scenarios/grid/1x1-500m/train/38-scenario/trips.trips.xml"/>
    </input>

    <output>
        <output-file value="/home/franky3er/Documents/code/HieraGLight/scenarios/grid/1x1-500m/train/38-scenario/routes.rou.xml"/>
        <alternatives-output value="NUL"/>
    </output>

    <time>
        <begin value="0"/>
        <end value="900"/>
    </time>

    <report>
        <no-warnings value="true"/>
        <ignore-errors value="true"/>
        <no-step-log value="true"/>
    </report>

</configuration>
-->

<routes xmlns:xsi="http://www.w3.org/2001/XMLSchema-instance" xsi:noNamespaceSchemaLocation="http://sumo.dlr.de/xsd/routes_file.xsd">
    <vType id="passenger" vClass="passenger"/>
    <vehicle id="0" type="passenger" depart="1.05">
        <route edges="bottom0A0 bottom0A0.250.00 A0top0"/>
    </vehicle>
    <vehicle id="3" type="passenger" depart="2.40">
        <route edges="left0A0.250.00 A0right0"/>
    </vehicle>
    <vehicle id="4" type="passenger" depart="2.65">
        <route edges="left0A0.250.00 A0right0"/>
    </vehicle>
    <vehicle id="5" type="passenger" depart="2.90">
        <route edges="bottom0A0 bottom0A0.250.00 A0top0"/>
    </vehicle>
    <vehicle id="6" type="passenger" depart="3.45">
        <route edges="right0A0 right0A0.250.00 A0bottom0"/>
    </vehicle>
    <vehicle id="7" type="passenger" depart="3.90">
        <route edges="top0A0.250.00 A0right0"/>
    </vehicle>
    <vehicle id="8" type="passenger" depart="4.25">
        <route edges="top0A0 top0A0.250.00 A0left0"/>
    </vehicle>
    <vehicle id="9" type="passenger" depart="4.40">
        <route edges="left0A0 left0A0.250.00 A0right0"/>
    </vehicle>
    <vehicle id="10" type="passenger" depart="4.65">
        <route edges="right0A0 right0A0.250.00 A0left0"/>
    </vehicle>
    <vehicle id="13" type="passenger" depart="5.30">
        <route edges="left0A0.250.00 A0right0"/>
    </vehicle>
    <vehicle id="16" type="passenger" depart="6.60">
        <route edges="bottom0A0 bottom0A0.250.00"/>
    </vehicle>
    <vehicle id="18" type="passenger" depart="7.40">
        <route edges="top0A0 top0A0.250.00"/>
    </vehicle>
    <vehicle id="20" type="passenger" depart="8.10">
        <route edges="top0A0 top0A0.250.00 A0right0"/>
    </vehicle>
    <vehicle id="24" type="passenger" depart="9.85">
        <route edges="right0A0.250.00"/>
    </vehicle>
    <vehicle id="25" type="passenger" depart="9.95">
        <route edges="right0A0.250.00 A0bottom0"/>
    </vehicle>
    <vehicle id="26" type="passenger" depart="10.00">
        <route edges="bottom0A0.250.00 A0left0"/>
    </vehicle>
    <vehicle id="30" type="passenger" depart="12.05">
        <route edges="left0A0 left0A0.250.00 A0bottom0"/>
    </vehicle>
    <vehicle id="31" type="passenger" depart="12.55">
        <route edges="right0A0.250.00 A0top0"/>
    </vehicle>
    <vehicle id="33" type="passenger" depart="12.95">
        <route edges="right0A0.250.00 A0left0"/>
    </vehicle>
    <vehicle id="35" type="passenger" depart="14.15">
        <route edges="top0A0 top0A0.250.00 A0right0"/>
    </vehicle>
    <vehicle id="39" type="passenger" depart="18.45">
        <route edges="left0A0 left0A0.250.00 A0right0"/>
    </vehicle>
    <vehicle id="40" type="passenger" depart="18.60">
        <route edges="top0A0 top0A0.250.00"/>
    </vehicle>
    <vehicle id="42" type="passenger" depart="18.70">
        <route edges="top0A0.250.00"/>
    </vehicle>
    <vehicle id="43" type="passenger" depart="18.80">
        <route edges="right0A0.250.00"/>
    </vehicle>
    <vehicle id="47" type="passenger" depart="20.20">
        <route edges="bottom0A0 bottom0A0.250.00 A0left0"/>
    </vehicle>
    <vehicle id="50" type="passenger" depart="21.85">
        <route edges="bottom0A0.250.00 A0right0"/>
    </vehicle>
    <vehicle id="51" type="passenger" depart="22.55">
        <route edges="bottom0A0.250.00"/>
    </vehicle>
    <vehicle id="52" type="passenger" depart="22.60">
        <route edges="top0A0 top0A0.250.00"/>
    </vehicle>
    <vehicle id="55" type="passenger" depart="23.75">
        <route edges="bottom0A0 bottom0A0.250.00 A0left0"/>
    </vehicle>
    <vehicle id="57" type="passenger" depart="25.50">
        <route edges="bottom0A0.250.00 A0right0"/>
    </vehicle>
    <vehicle id="59" type="passenger" depart="26.10">
        <route edges="right0A0 right0A0.250.00 A0top0"/>
    </vehicle>
    <vehicle id="60" type="passenger" depart="27.65">
        <route edges="bottom0A0 bottom0A0.250.00 A0top0"/>
    </vehicle>
    <vehicle id="64" type="passenger" depart="29.65">
        <route edges="bottom0A0 bottom0A0.250.00 A0left0"/>
    </vehicle>
    <vehicle id="65" type="passenger" depart="29.80">
        <route edges="left0A0 left0A0.250.00 A0bottom0"/>
    </vehicle>
    <vehicle id="68" type="passenger" depart="30.30">
        <route edges="bottom0A0.250.00"/>
    </vehicle>
    <vehicle id="69" type="passenger" depart="30.70">
        <route edges="bottom0A0.250.00"/>
    </vehicle>
    <vehicle id="71" type="passenger" depart="32.45">
        <route edges="left0A0.250.00 A0right0"/>
    </vehicle>
    <vehicle id="81" type="passenger" depart="35.65">
        <route edges="top0A0.250.00 A0right0"/>
    </vehicle>
    <vehicle id="82" type="passenger" depart="35.75">
        <route edges="bottom0A0 bottom0A0.250.00"/>
    </vehicle>
    <vehicle id="85" type="passenger" depart="38.85">
        <route edges="top0A0 top0A0.250.00 A0left0"/>
    </vehicle>
    <vehicle id="87" type="passenger" depart="39.45">
        <route edges="right0A0.250.00 A0left0"/>
    </vehicle>
    <vehicle id="88" type="passenger" depart="39.90">
        <route edges="right0A0.250.00 A0top0"/>
    </vehicle>
    <vehicle id="92" type="passenger" depart="42.25">
        <route edges="bottom0A0.250.00 A0right0"/>
    </vehicle>
    <vehicle id="94" type="passenger" depart="44.10">
        <route edges="left0A0.250.00 A0bottom0"/>
    </vehicle>
    <vehicle id="95" type="passenger" depart="44.25">
        <route edges="top0A0.250.00 A0left0"/>
    </vehicle>
    <vehicle id="96" type="passenger" depart="44.40">
        <route edges="right0A0 right0A0.250.00 A0bottom0"/>
    </vehicle>
    <vehicle id="97" type="passenger" depart="44.60">
        <route edges="bottom0A0.250.00"/>
    </vehicle>
    <vehicle id="101" type="passenger" depart="47.10">
        <route edges="bottom0A0 bottom0A0.250.00 A0left0"/>
    </vehicle>
    <vehicle id="102" type="passenger" depart="47.70">
        <route edges="left0A0.250.00 A0top0"/>
    </vehicle>
    <vehicle id="103" type="passenger" depart="48.20">
        <route edges="right0A0.250.00 A0left0"/>
    </vehicle>
    <vehicle id="106" type="passenger" depart="49.60">
        <route edges="right0A0 right0A0.250.00 A0left0"/>
    </vehicle>
    <vehicle id="107" type="passenger" depart="50.45">
        <route edges="top0A0.250.00 A0bottom0"/>
    </vehicle>
    <vehicle id="109" type="passenger" depart="50.70">
        <route edges="left0A0 left0A0.250.00 A0top0"/>
    </vehicle>
    <vehicle id="114" type="passenger" depart="53.50">
        <route edges="left0A0 left0A0.250.00 A0right0"/>
    </vehicle>
    <vehicle id="115" type="passenger" depart="53.55">
        <route edges="right0A0 right0A0.250.00 A0left0"/>
    </vehicle>
    <vehicle id="118" type="passenger" depart="57.00">
        <route edges="top0A0.250.00 A0left0"/>
    </vehicle>
    <vehicle id="119" type="passenger" depart="57.05">
        <route edges="bottom0A0.250.00 A0right0"/>
    </vehicle>
    <vehicle id="123" type="passenger" depart="59.40">
        <route edges="right0A0 right0A0.250.00 A0top0"/>
    </vehicle>
    <vehicle id="126" type="passenger" depart="59.65">
        <route edges="top0A0.250.00 A0right0"/>
    </vehicle>
    <vehicle id="127" type="passenger" depart="60.55">
        <route edges="right0A0 right0A0.250.00 A0left0"/>
    </vehicle>
    <vehicle id="128" type="passenger" depart="61.00">
        <route edges="top0A0 top0A0.250.00"/>
    </vehicle>
    <vehicle id="130" type="passenger" depart="61.70">
        <route edges="right0A0.250.00 A0left0"/>
    </vehicle>
    <vehicle id="133" type="passenger" depart="62.05">
        <route edges="top0A0.250.00 A0right0"/>
    </vehicle>
    <vehicle id="134" type="passenger" depart="62.10">
        <route edges="left0A0 left0A0.250.00 A0right0"/>
    </vehicle>
    <vehicle id="135" type="passenger" depart="62.35">
        <route edges="right0A0 right0A0.250.00"/>
    </vehicle>
    <vehicle id="137" type="passenger" depart="63.65">
        <route edges="right0A0.250.00 A0bottom0"/>
    </vehicle>
    <vehicle id="139" type="passenger" depart="63.70">
        <route edges="right0A0.250.00 A0top0"/>
    </vehicle>
    <vehicle id="140" type="passenger" depart="65.45">
        <route edges="bottom0A0 bottom0A0.250.00"/>
    </vehicle>
    <vehicle id="141" type="passenger" depart="65.80">
        <route edges="left0A0 left0A0.250.00 A0bottom0"/>
    </vehicle>
    <vehicle id="142" type="passenger" depart="65.80">
        <route edges="left0A0 left0A0.250.00 A0top0"/>
    </vehicle>
    <vehicle id="143" type="passenger" depart="67.15">
        <route edges="left0A0.250.00 A0top0"/>
    </vehicle>
    <vehicle id="144" type="passenger" depart="68.40">
        <route edges="top0A0 top0A0.250.00"/>
    </vehicle>
    <vehicle id="146" type="passenger" depart="68.85">
        <route edges="left0A0.250.00 A0top0"/>
    </vehicle>
    <vehicle id="147" type="passenger" depart="69.10">
        <route edges="right0A0.250.00 A0top0"/>
    </vehicle>
    <vehicle id="148" type="passenger" depart="69.65">
        <route edges="right0A0 right0A0.250.00"/>
    </vehicle>
    <vehicle id="149" type="passenger" depart="70.05">
        <route edges="right0A0.250.00 A0bottom0"/>
    </vehicle>
    <vehicle id="151" type="passenger" depart="70.45">
        <route edges="left0A0.250.00"/>
    </vehicle>
    <vehicle id="154" type="passenger" depart="72.85">
        <route edges="right0A0 right0A0.250.00 A0bottom0"/>
    </vehicle>
    <vehicle id="155" type="passenger" depart="74.90">
        <route edges="left0A0.250.00 A0right0"/>
    </vehicle>
    <vehicle id="156" type="passenger" depart="75.60">
        <route edges="top0A0.250.00 A0left0"/>
    </vehicle>
    <vehicle id="157" type="passenger" depart="75.65">
        <route edges="bottom0A0.250.00 A0left0"/>
    </vehicle>
    <vehicle id="158" type="passenger" depart="75.65">
        <route edges="bottom0A0.250.00 A0right0"/>
    </vehicle>
    <vehicle id="161" type="passenger" depart="76.55">
        <route edges="top0A0 top0A0.250.00"/>
    </vehicle>
    <vehicle id="162" type="passenger" depart="76.80">
        <route edges="right0A0.250.00"/>
    </vehicle>
    <vehicle id="166" type="passenger" depart="79.40">
        <route edges="right0A0.250.00 A0left0"/>
    </vehicle>
    <vehicle id="169" type="passenger" depart="79.85">
        <route edges="right0A0.250.00 A0top0"/>
    </vehicle>
    <vehicle id="177" type="passenger" depart="84.85">
        <route edges="top0A0 top0A0.250.00 A0left0"/>
    </vehicle>
    <vehicle id="179" type="passenger" depart="85.50">
        <route edges="top0A0.250.00 A0right0"/>
    </vehicle>
    <vehicle id="181" type="passenger" depart="86.25">
        <route edges="left0A0 left0A0.250.00 A0bottom0"/>
    </vehicle>
    <vehicle id="193" type="passenger" depart="89.55">
        <route edges="left0A0.250.00 A0bottom0"/>
    </vehicle>
    <vehicle id="194" type="passenger" depart="89.60">
        <route edges="left0A0.250.00"/>
    </vehicle>
    <vehicle id="198" type="passenger" depart="90.80">
        <route edges="left0A0.250.00"/>
    </vehicle>
    <vehicle id="200" type="passenger" depart="91.65">
        <route edges="bottom0A0 bottom0A0.250.00 A0left0"/>
    </vehicle>
    <vehicle id="203" type="passenger" depart="92.15">
        <route edges="left0A0 left0A0.250.00 A0bottom0"/>
    </vehicle>
    <vehicle id="205" type="passenger" depart="92.30">
        <route edges="bottom0A0 bottom0A0.250.00 A0left0"/>
    </vehicle>
    <vehicle id="206" type="passenger" depart="93.45">
        <route edges="right0A0 right0A0.250.00 A0top0"/>
    </vehicle>
    <vehicle id="208" type="passenger" depart="93.85">
        <route edges="left0A0 left0A0.250.00 A0bottom0"/>
    </vehicle>
    <vehicle id="209" type="passenger" depart="94.10">
        <route edges="left0A0 left0A0.250.00 A0top0"/>
    </vehicle>
    <vehicle id="211" type="passenger" depart="94.45">
        <route edges="bottom0A0 bottom0A0.250.00 A0top0"/>
    </vehicle>
    <vehicle id="214" type="passenger" depart="95.85">
        <route edges="right0A0 right0A0.250.00 A0top0"/>
    </vehicle>
    <vehicle id="215" type="passenger" depart="95.90">
        <route edges="left0A0 left0A0.250.00 A0right0"/>
    </vehicle>
    <vehicle id="217" type="passenger" depart="96.30">
        <route edges="bottom0A0.250.00 A0left0"/>
    </vehicle>
    <vehicle id="218" type="passenger" depart="96.50">
        <route edges="right0A0.250.00"/>
    </vehicle>
    <vehicle id="219" type="passenger" depart="96.70">
        <route edges="left0A0.250.00 A0top0"/>
    </vehicle>
    <vehicle id="220" type="passenger" depart="96.75">
        <route edges="right0A0.250.00 A0left0"/>
    </vehicle>
    <vehicle id="222" type="passenger" depart="97.20">
        <route edges="bottom0A0.250.00 A0left0"/>
    </vehicle>
    <vehicle id="226" type="passenger" depart="99.30">
        <route edges="top0A0.250.00 A0left0"/>
    </vehicle>
    <vehicle id="228" type="passenger" depart="101.20">
        <route edges="right0A0 right0A0.250.00 A0left0"/>
    </vehicle>
    <vehicle id="231" type="passenger" depart="103.45">
        <route edges="bottom0A0.250.00 A0left0"/>
    </vehicle>
    <vehicle id="232" type="passenger" depart="104.20">
        <route edges="left0A0.250.00 A0right0"/>
    </vehicle>
    <vehicle id="235" type="passenger" depart="106.20">
        <route edges="right0A0 right0A0.250.00 A0bottom0"/>
    </vehicle>
    <vehicle id="236" type="passenger" depart="106.40">
        <route edges="top0A0 top0A0.250.00 A0left0"/>
    </vehicle>
    <vehicle id="237" type="passenger" depart="106.90">
        <route edges="top0A0 top0A0.250.00 A0left0"/>
    </vehicle>
    <vehicle id="238" type="passenger" depart="107.45">
        <route edges="bottom0A0.250.00 A0top0"/>
    </vehicle>
    <vehicle id="240" type="passenger" depart="108.25">
        <route edges="bottom0A0 bottom0A0.250.00"/>
    </vehicle>
    <vehicle id="241" type="passenger" depart="108.30">
        <route edges="left0A0.250.00 A0bottom0"/>
    </vehicle>
    <vehicle id="245" type="passenger" depart="110.90">
        <route edges="bottom0A0.250.00 A0top0"/>
    </vehicle>
    <vehicle id="249" type="passenger" depart="111.80">
        <route edges="top0A0 top0A0.250.00 A0left0"/>
    </vehicle>
    <vehicle id="251" type="passenger" depart="112.15">
        <route edges="left0A0.250.00 A0top0"/>
    </vehicle>
    <vehicle id="253" type="passenger" depart="112.35">
        <route edges="left0A0 left0A0.250.00 A0bottom0"/>
    </vehicle>
    <vehicle id="255" type="passenger" depart="112.45">
        <route edges="top0A0.250.00 A0right0"/>
    </vehicle>
    <vehicle id="256" type="passenger" depart="113.10">
        <route edges="top0A0.250.00 A0bottom0"/>
    </vehicle>
    <vehicle id="267" type="passenger" depart="118.35">
        <route edges="bottom0A0 bottom0A0.250.00"/>
    </vehicle>
    <vehicle id="271" type="passenger" depart="119.00">
        <route edges="bottom0A0 bottom0A0.250.00"/>
    </vehicle>
    <vehicle id="273" type="passenger" depart="119.15">
        <route edges="top0A0.250.00 A0right0"/>
    </vehicle>
    <vehicle id="277" type="passenger" depart="119.85">
        <route edges="top0A0.250.00"/>
    </vehicle>
    <vehicle id="280" type="passenger" depart="120.85">
        <route edges="bottom0A0 bottom0A0.250.00 A0top0"/>
    </vehicle>
    <vehicle id="281" type="passenger" depart="121.00">
        <route edges="right0A0.250.00 A0left0"/>
    </vehicle>
    <vehicle id="285" type="passenger" depart="123.20">
        <route edges="left0A0 left0A0.250.00 A0right0"/>
    </vehicle>
    <vehicle id="286" type="passenger" depart="123.45">
        <route edges="right0A0 right0A0.250.00 A0left0"/>
    </vehicle>
    <vehicle id="291" type="passenger" depart="125.70">
        <route edges="left0A0 left0A0.250.00 A0right0"/>
    </vehicle>
    <vehicle id="292" type="passenger" depart="125.75">
        <route edges="right0A0.250.00 A0top0"/>
    </vehicle>
    <vehicle id="293" type="passenger" depart="126.10">
        <route edges="bottom0A0.250.00 A0left0"/>
    </vehicle>
    <vehicle id="294" type="passenger" depart="126.35">
        <route edges="right0A0.250.00 A0bottom0"/>
    </vehicle>
    <vehicle id="297" type="passenger" depart="126.80">
        <route edges="right0A0.250.00 A0top0"/>
    </vehicle>
    <vehicle id="299" type="passenger" depart="127.75">
        <route edges="bottom0A0 bottom0A0.250.00 A0top0"/>
    </vehicle>
    <vehicle id="301" type="passenger" depart="128.35">
        <route edges="right0A0.250.00 A0left0"/>
    </vehicle>
    <vehicle id="302" type="passenger" depart="128.75">
        <route edges="right0A0 right0A0.250.00 A0top0"/>
    </vehicle>
    <vehicle id="308" type="passenger" depart="130.30">
        <route edges="left0A0 left0A0.250.00 A0right0"/>
    </vehicle>
    <vehicle id="309" type="passenger" depart="130.60">
        <route edges="right0A0.250.00 A0top0"/>
    </vehicle>
    <vehicle id="314" type="passenger" depart="132.50">
        <route edges="bottom0A0 bottom0A0.250.00 A0right0"/>
    </vehicle>
    <vehicle id="316" type="passenger" depart="133.40">
        <route edges="right0A0.250.00"/>
    </vehicle>
    <vehicle id="320" type="passenger" depart="136.60">
        <route edges="right0A0.250.00"/>
    </vehicle>
    <vehicle id="321" type="passenger" depart="136.90">
        <route edges="right0A0.250.00 A0bottom0"/>
    </vehicle>
    <vehicle id="325" type="passenger" depart="137.40">
        <route edges="left0A0.250.00 A0right0"/>
    </vehicle>
    <vehicle id="326" type="passenger" depart="138.45">
        <route edges="left0A0 left0A0.250.00 A0bottom0"/>
    </vehicle>
    <vehicle id="333" type="passenger" depart="141.25">
        <route edges="top0A0.250.00 A0bottom0"/>
    </vehicle>
    <vehicle id="334" type="passenger" depart="141.50">
        <route edges="right0A0 right0A0.250.00 A0left0"/>
    </vehicle>
    <vehicle id="335" type="passenger" depart="141.90">
        <route edges="left0A0 left0A0.250.00"/>
    </vehicle>
    <vehicle id="338" type="passenger" depart="143.35">
        <route edges="right0A0.250.00 A0top0"/>
    </vehicle>
    <vehicle id="339" type="passenger" depart="143.40">
        <route edges="right0A0.250.00 A0top0"/>
    </vehicle>
    <vehicle id="341" type="passenger" depart="145.25">
        <route edges="left0A0 left0A0.250.00"/>
    </vehicle>
    <vehicle id="342" type="passenger" depart="145.40">
        <route edges="left0A0.250.00 A0bottom0"/>
    </vehicle>
    <vehicle id="345" type="passenger" depart="146.45">
        <route edges="right0A0 right0A0.250.00 A0bottom0"/>
    </vehicle>
    <vehicle id="346" type="passenger" depart="146.65">
        <route edges="left0A0 left0A0.250.00 A0top0"/>
    </vehicle>
    <vehicle id="354" type="passenger" depart="150.65">
        <route edges="left0A0.250.00 A0top0"/>
    </vehicle>
    <vehicle id="356" type="passenger" depart="155.00">
        <route edges="bottom0A0.250.00 A0top0"/>
    </vehicle>
    <vehicle id="357" type="passenger" depart="155.50">
        <route edges="bottom0A0 bottom0A0.250.00"/>
    </vehicle>
    <vehicle id="358" type="passenger" depart="155.50">
        <route edges="bottom0A0 bottom0A0.250.00 A0right0"/>
    </vehicle>
    <vehicle id="359" type="passenger" depart="156.50">
        <route edges="left0A0.250.00"/>
    </vehicle>
    <vehicle id="361" type="passenger" depart="157.10">
        <route edges="top0A0.250.00 A0bottom0"/>
    </vehicle>
    <vehicle id="362" type="passenger" depart="157.10">
        <route edges="bottom0A0.250.00"/>
    </vehicle>
    <vehicle id="364" type="passenger" depart="157.20">
        <route edges="right0A0.250.00 A0top0"/>
    </vehicle>
    <vehicle id="368" type="passenger" depart="159.35">
        <route edges="bottom0A0.250.00 A0right0"/>
    </vehicle>
    <vehicle id="369" type="passenger" depart="159.55">
        <route edges="top0A0 top0A0.250.00"/>
    </vehicle>
    <vehicle id="370" type="passenger" depart="159.55">
        <route edges="right0A0.250.00 A0bottom0"/>
    </vehicle>
    <vehicle id="373" type="passenger" depart="162.35">
        <route edges="right0A0.250.00 A0top0"/>
    </vehicle>
    <vehicle id="374" type="passenger" depart="162.65">
        <route edges="top0A0.250.00 A0left0"/>
    </vehicle>
    <vehicle id="375" type="passenger" depart="162.75">
        <route edges="right0A0.250.00 A0left0"/>
    </vehicle>
    <vehicle id="379" type="passenger" depart="164.80">
        <route edges="bottom0A0 bottom0A0.250.00 A0right0"/>
    </vehicle>
    <vehicle id="380" type="passenger" depart="165.10">
        <route edges="bottom0A0.250.00 A0left0"/>
    </vehicle>
    <vehicle id="384" type="passenger" depart="166.60">
        <route edges="bottom0A0 bottom0A0.250.00 A0left0"/>
    </vehicle>
    <vehicle id="387" type="passenger" depart="167.85">
        <route edges="left0A0 left0A0.250.00"/>
    </vehicle>
    <vehicle id="389" type="passenger" depart="169.10">
        <route edges="left0A0 left0A0.250.00"/>
    </vehicle>
    <vehicle id="390" type="passenger" depart="169.55">
        <route edges="top0A0.250.00 A0right0"/>
    </vehicle>
    <vehicle id="392" type="passenger" depart="170.45">
        <route edges="right0A0.250.00 A0top0"/>
    </vehicle>
    <vehicle id="393" type="passenger" depart="170.80">
        <route edges="bottom0A0.250.00 A0top0"/>
    </vehicle>
    <vehicle id="395" type="passenger" depart="171.20">
        <route edges="left0A0.250.00 A0top0"/>
    </vehicle>
    <vehicle id="397" type="passenger" depart="174.90">
        <route edges="bottom0A0 bottom0A0.250.00 A0left0"/>
    </vehicle>
    <vehicle id="400" type="passenger" depart="175.40">
        <route edges="right0A0 right0A0.250.00"/>
    </vehicle>
    <vehicle id="401" type="passenger" depart="175.60">
        <route edges="bottom0A0.250.00"/>
    </vehicle>
    <vehicle id="402" type="passenger" depart="175.60">
        <route edges="left0A0 left0A0.250.00 A0right0"/>
    </vehicle>
    <vehicle id="403" type="passenger" depart="176.95">
        <route edges="right0A0.250.00 A0bottom0"/>
    </vehicle>
    <vehicle id="404" type="passenger" depart="177.85">
        <route edges="left0A0 left0A0.250.00 A0right0"/>
    </vehicle>
    <vehicle id="405" type="passenger" depart="178.20">
        <route edges="top0A0 top0A0.250.00 A0bottom0"/>
    </vehicle>
    <vehicle id="407" type="passenger" depart="178.30">
        <route edges="top0A0 top0A0.250.00"/>
    </vehicle>
    <vehicle id="408" type="passenger" depart="178.55">
        <route edges="left0A0.250.00"/>
    </vehicle>
    <vehicle id="409" type="passenger" depart="178.60">
        <route edges="left0A0 left0A0.250.00 A0right0"/>
    </vehicle>
    <vehicle id="411" type="passenger" depart="180.30">
        <route edges="right0A0.250.00 A0left0"/>
    </vehicle>
    <vehicle id="412" type="passenger" depart="181.15">
        <route edges="right0A0.250.00 A0bottom0"/>
    </vehicle>
    <vehicle id="414" type="passenger" depart="181.85">
        <route edges="left0A0.250.00 A0top0"/>
    </vehicle>
    <vehicle id="416" type="passenger" depart="182.10">
        <route edges="bottom0A0 bottom0A0.250.00 A0right0"/>
    </vehicle>
    <vehicle id="420" type="passenger" depart="183.50">
        <route edges="left0A0 left0A0.250.00 A0bottom0"/>
    </vehicle>
    <vehicle id="421" type="passenger" depart="183.90">
        <route edges="left0A0 left0A0.250.00 A0right0"/>
    </vehicle>
    <vehicle id="428" type="passenger" depart="187.65">
        <route edges="right0A0 right0A0.250.00 A0top0"/>
    </vehicle>
    <vehicle id="429" type="passenger" depart="189.55">
        <route edges="right0A0 right0A0.250.00 A0top0"/>
    </vehicle>
    <vehicle id="430" type="passenger" depart="189.70">
        <route edges="bottom0A0.250.00 A0left0"/>
    </vehicle>
    <vehicle id="432" type="passenger" depart="189.85">
        <route edges="top0A0.250.00 A0right0"/>
    </vehicle>
    <vehicle id="433" type="passenger" depart="190.05">
        <route edges="right0A0 right0A0.250.00 A0bottom0"/>
    </vehicle>
    <vehicle id="436" type="passenger" depart="193.05">
        <route edges="bottom0A0.250.00 A0left0"/>
    </vehicle>
    <vehicle id="437" type="passenger" depart="193.65">
        <route edges="bottom0A0.250.00 A0top0"/>
    </vehicle>
    <vehicle id="438" type="passenger" depart="194.60">
        <route edges="left0A0 left0A0.250.00 A0bottom0"/>
    </vehicle>
    <vehicle id="439" type="passenger" depart="195.00">
        <route edges="top0A0.250.00 A0right0"/>
    </vehicle>
    <vehicle id="440" type="passenger" depart="195.80">
        <route edges="bottom0A0.250.00"/>
    </vehicle>
    <vehicle id="441" type="passenger" depart="195.85">
        <route edges="left0A0 left0A0.250.00"/>
    </vehicle>
    <vehicle id="442" type="passenger" depart="195.95">
        <route edges="left0A0 left0A0.250.00 A0bottom0"/>
    </vehicle>
    <vehicle id="443" type="passenger" depart="196.00">
        <route edges="left0A0.250.00 A0right0"/>
    </vehicle>
    <vehicle id="445" type="passenger" depart="196.20">
        <route edges="top0A0.250.00 A0right0"/>
    </vehicle>
    <vehicle id="446" type="passenger" depart="196.40">
        <route edges="bottom0A0 bottom0A0.250.00"/>
    </vehicle>
    <vehicle id="447" type="passenger" depart="196.50">
        <route edges="right0A0.250.00 A0top0"/>
    </vehicle>
    <vehicle id="448" type="passenger" depart="196.50">
        <route edges="right0A0.250.00 A0bottom0"/>
    </vehicle>
    <vehicle id="452" type="passenger" depart="198.00">
        <route edges="left0A0.250.00 A0bottom0"/>
    </vehicle>
    <vehicle id="455" type="passenger" depart="199.60">
        <route edges="top0A0 top0A0.250.00 A0left0"/>
    </vehicle>
    <vehicle id="456" type="passenger" depart="199.60">
        <route edges="left0A0.250.00 A0right0"/>
    </vehicle>
    <vehicle id="458" type="passenger" depart="202.40">
        <route edges="left0A0 left0A0.250.00 A0bottom0"/>
    </vehicle>
    <vehicle id="459" type="passenger" depart="202.80">
        <route edges="right0A0.250.00 A0bottom0"/>
    </vehicle>
    <vehicle id="460" type="passenger" depart="202.80">
        <route edges="top0A0.250.00"/>
    </vehicle>
    <vehicle id="462" type="passenger" depart="204.25">
        <route edges="right0A0 right0A0.250.00 A0top0"/>
    </vehicle>
    <vehicle id="465" type="passenger" depart="207.30">
        <route edges="left0A0.250.00"/>
    </vehicle>
    <vehicle id="469" type="passenger" depart="208.85">
        <route edges="bottom0A0.250.00 A0top0"/>
    </vehicle>
    <vehicle id="470" type="passenger" depart="209.65">
        <route edges="right0A0.250.00 A0top0"/>
    </vehicle>
    <vehicle id="473" type="passenger" depart="209.70">
        <route edges="right0A0.250.00 A0left0"/>
    </vehicle>
    <vehicle id="475" type="passenger" depart="210.30">
        <route edges="left0A0.250.00 A0bottom0"/>
    </vehicle>
    <vehicle id="476" type="passenger" depart="210.40">
        <route edges="bottom0A0 bottom0A0.250.00 A0left0"/>
    </vehicle>
    <vehicle id="479" type="passenger" depart="210.85">
        <route edges="bottom0A0 bottom0A0.250.00"/>
    </vehicle>
    <vehicle id="480" type="passenger" depart="211.05">
        <route edges="bottom0A0 bottom0A0.250.00 A0right0"/>
    </vehicle>
    <vehicle id="481" type="passenger" depart="211.25">
        <route edges="right0A0.250.00 A0bottom0"/>
    </vehicle>
    <vehicle id="484" type="passenger" depart="212.15">
        <route edges="right0A0.250.00 A0bottom0"/>
    </vehicle>
    <vehicle id="485" type="passenger" depart="212.55">
        <route edges="right0A0 right0A0.250.00 A0bottom0"/>
    </vehicle>
    <vehicle id="488" type="passenger" depart="215.35">
        <route edges="right0A0 right0A0.250.00 A0bottom0"/>
    </vehicle>
    <vehicle id="490" type="passenger" depart="217.00">
        <route edges="left0A0 left0A0.250.00 A0top0"/>
    </vehicle>