<?xml version="1.0" encoding="UTF-8"?>

<!-- generated on 2023-05-04 15:20:50.385555 by randomTrips.py UNKNOWN
<configuration>
    <net-file value="/home/franky3er/Documents/code/HieraGLight/scenarios/grid/3x3-150m/train/81-scenario/network.net.xml"/>
    <output-trip-file value="/home/franky3er/Documents/code/HieraGLight/scenarios/grid/3x3-150m/train/81-scenario/trips.trips.xml"/>
    <route-file value="/home/franky3er/Documents/code/HieraGLight/scenarios/grid/3x3-150m/train/81-scenario/routes.rou.xml"/>
    <end value="900.0"/>
    <random-depart value="True"/>
    <seed value="81"/>
    <random value="True"/>
    <vehicle-class value="passenger"/>
    <insertion-rate value="6000.0"/>
</configuration>
-->

<routes xmlns:xsi="http://www.w3.org/2001/XMLSchema-instance" xsi:noNamespaceSchemaLocation="http://sumo.dlr.de/xsd/routes_file.xsd">
    <vType id="passenger" vClass="passenger"/>
    <trip id="0" depart="0.60" from="left1A1.80.00" to="C2B2" type="passenger"/>
    <trip id="1" depart="0.80" from="C0B0.80.00" to="C2B2" type="passenger"/>
    <trip id="2" depart="1.00" from="B1B0.80.00" to="C1C0.80.00" type="passenger"/>
    <trip id="3" depart="2.00" from="A2A1" to="B0C0.80.00" type="passenger"/>
    <trip id="4" depart="2.20" from="B0B1" to="A1B1.80.00" type="passenger"/>
    <trip id="5" depart="2.80" from="right0C0" to="C0B0" type="passenger"/>
    <trip id="6" depart="3.40" from="left1A1.80.00" to="A2A1" type="passenger"/>
    <trip id="7" depart="6.00" from="right1C1.80.00" to="C2C1" type="passenger"/>
    <trip id="8" depart="6.40" from="left2A2" to="C0C1.80.00" type="passenger"/>
    <trip id="9" depart="6.80" from="B0A0.80.00" to="bottom2C0.80.00" type="passenger"/>
    <trip id="10" depart="7.60" from="C2C1.80.00" to="right1C1.80.00" type="passenger"/>
    <trip id="11" depart="8.40" from="top1B2.80.00" to="C2C1.80.00" type="passenger"/>
    <trip id="12" depart="9.40" from="bottom1B0.80.00" to="A0bottom0" type="passenger"/>
    <trip id="13" depart="9.80" from="B2C2.80.00" to="C0right0" type="passenger"/>
    <trip id="14" depart="11.00" from="C1C2.80.00" to="C1B1.80.00" type="passenger"/>
    <trip id="15" depart="11.20" from="B0B1" to="C1C0.80.00" type="passenger"/>
    <trip id="16" depart="11.40" from="right0C0.80.00" to="C1C2" type="passenger"/>
    <trip id="17" depart="12.00" from="B1B0" to="A2A1.80.00" type="passenger"/>
    <trip id="18" depart="12.60" from="B2B1.80.00" to="A1B1.80.00" type="passenger"/>
    <trip id="19" depart="12.80" from="A2B2" to="A1B1.80.00" type="passenger"/>
    <trip id="20" depart="13.20" from="A1B1.80.00" to="B1B0.80.00" type="passenger"/>
    <trip id="21" depart="13.80" from="A1B1.80.00" to="C1C2.80.00" type="passenger"/>
    <trip id="22" depart="14.60" from="B2A2.80.00" to="A1A2" type="passenger"/>
    <trip id="23" depart="15.00" from="C2B2" to="C0right0" type="passenger"/>
    <trip id="24" depart="16.40" from="B0A0.80.00" to="B2B1" type="passenger"/>
    <trip id="25" depart="17.00" from="B2A2.80.00" to="C2C1.80.00" type="passenger"/>
    <trip id="26" depart="17.00" from="left0A0" to="C0C1" type="passenger"/>
    <trip id="27" depart="17.20" from="B1B0.80.00" to="A1A0.80.00" type="passenger"/>
    <trip id="28" depart="17.80" from="A0A1" to="B2B1" type="passenger"/>
    <trip id="29" depart="18.00" from="left2A2.80.00" to="C2B2.80.00" type="passenger"/>
    <trip id="30" depart="18.80" from="B1B0.80.00" to="bottom0A0.80.00" type="passenger"/>
    <trip id="31" depart="19.00" from="A2A1" to="B0A0" type="passenger"/>
    <trip id="32" depart="19.40" from="top2C2" to="A0B0" type="passenger"/>
    <trip id="33" depart="19.80" from="top0A2" to="B2A2" type="passenger"/>
    <trip id="34" depart="20.00" from="right2C2.80.00" to="A0left0" type="passenger"/>
    <trip id="35" depart="20.60" from="A0A1.80.00" to="C1right1" type="passenger"/>
    <trip id="36" depart="22.00" from="left0A0.80.00" to="C0right0" type="passenger"/>
    <trip id="37" depart="22.20" from="B2B1" to="A2B2" type="passenger"/>
    <trip id="38" depart="22.40" from="B0C0.80.00" to="A2left2" type="passenger"/>
    <trip id="39" depart="23.20" from="A1A0.80.00" to="A0left0" type="passenger"/>
    <trip id="40" depart="24.00" from="C1C0" to="B1B2.80.00" type="passenger"/>
    <trip id="41" depart="24.00" from="C0B0" to="B1B2" type="passenger"/>
    <trip id="42" depart="26.20" from="B0A0.80.00" to="B0B1" type="passenger"/>
    <trip id="43" depart="27.60" from="B1B0" to="A2left2" type="passenger"/>
    <trip id="44" depart="27.60" from="A0B0.80.00" to="left0A0.80.00" type="passenger"/>
    <trip id="45" depart="28.00" from="A2A1" to="B2A2.80.00" type="passenger"/>
    <trip id="46" depart="28.80" from="right0C0" to="right0C0.80.00" type="passenger"/>
    <trip id="47" depart="29.60" from="left0A0" to="B2B1.80.00" type="passenger"/>
    <trip id="48" depart="29.60" from="bottom1B0" to="B2C2" type="passenger"/>
    <trip id="49" depart="30.20" from="C1C0" to="C1C0.80.00" type="passenger"/>
    <trip id="50" depart="31.20" from="B1A1.80.00" to="A1left1" type="passenger"/>
    <trip id="51" depart="32.20" from="B0B1" to="B0C0.80.00" type="passenger"/>
    <trip id="52" depart="33.00" from="top2C2.80.00" to="C1B1.80.00" type="passenger"/>
    <trip id="53" depart="33.00" from="bottom2C0" to="C2C1" type="passenger"/>
    <trip id="54" depart="34.20" from="B1B2.80.00" to="C1B1.80.00" type="passenger"/>
    <trip id="55" depart="34.80" from="B2B1.80.00" to="C2right2" type="passenger"/>
    <trip id="56" depart="35.60" from="B1A1" to="bottom0A0.80.00" type="passenger"/>
    <trip id="57" depart="36.20" from="A0B0.80.00" to="C2right2" type="passenger"/>
    <trip id="58" depart="37.60" from="A2A1" to="right1C1.80.00" type="passenger"/>
    <trip id="59" depart="38.60" from="top1B2" to="A2B2.80.00" type="passenger"/>
    <trip id="60" depart="38.80" from="B2A2.80.00" to="A0left0" type="passenger"/>
    <trip id="61" depart="39.60" from="A2A1" to="A2A1" type="passenger"/>
    <trip id="62" depart="40.60" from="A2A1" to="A0A1.80.00" type="passenger"/>
    <trip id="63" depart="41.20" from="C1C0" to="C1B1.80.00" type="passenger"/>
    <trip id="64" depart="43.00" from="A2A1.80.00" to="C0B0.80.00" type="passenger"/>
    <trip id="65" depart="43.20" from="A1A0.80.00" to="C2B2.80.00" type="passenger"/>
    <trip id="66" depart="43.60" from="A1A0.80.00" to="right0C0.80.00" type="passenger"/>
    <trip id="67" depart="44.00" from="A1A0.80.00" to="C0C1" type="passenger"/>
    <trip id="68" depart="45.20" from="A0B0.80.00" to="right2C2.80.00" type="passenger"/>
    <trip id="69" depart="45.60" from="A1A0" to="A2A1.80.00" type="passenger"/>
    <trip id="70" depart="46.00" from="C2B2" to="bottom0A0.80.00" type="passenger"/>
    <trip id="71" depart="46.80" from="A1A0.80.00" to="A2left2" type="passenger"/>
    <trip id="72" depart="47.20" from="left2A2.80.00" to="C1C0" type="passenger"/>
    <trip id="73" depart="47.60" from="B2C2" to="C0right0" type="passenger"/>
    <trip id="74" depart="47.80" from="C1B1" to="right0C0.80.00" type="passenger"/>
    <trip id="75" depart="48.00" from="B2A2" to="B0C0.80.00" type="passenger"/>
    <trip id="76" depart="49.20" from="top0A2.80.00" to="A0left0" type="passenger"/>
    <trip id="77" depart="49.60" from="B2A2" to="C0right0" type="passenger"/>
    <trip id="78" depart="49.80" from="C1B1.80.00" to="B0bottom1" type="passenger"/>
    <trip id="79" depart="50.20" from="C0B0" to="top1B2.80.00" type="passenger"/>
    <trip id="80" depart="50.40" from="B0B1.80.00" to="B1A1" type="passenger"/>
    <trip id="81" depart="52.60" from="A1A2.80.00" to="A1A0" type="passenger"/>
    <trip id="82" depart="52.60" from="A0B0" to="B1B0.80.00" type="passenger"/>
    <trip id="83" depart="53.00" from="B0A0" to="A2top0" type="passenger"/>
    <trip id="84" depart="53.60" from="B2B1" to="A1B1.80.00" type="passenger"/>
    <trip id="85" depart="53.80" from="C1C0" to="B0C0" type="passenger"/>
    <trip id="86" depart="55.60" from="B0B1.80.00" to="B2B1" type="passenger"/>
    <trip id="87" depart="55.60" from="left1A1.80.00" to="A0A1.80.00" type="passenger"/>
    <trip id="88" depart="55.80" from="C1B1.80.00" to="A2B2" type="passenger"/>
    <trip id="89" depart="56.00" from="bottom0A0" to="B1A1.80.00" type="passenger"/>
    <trip id="90" depart="56.20" from="A0B0.80.00" to="C2B2.80.00" type="passenger"/>
    <trip id="91" depart="57.60" from="right1C1.80.00" to="C0C1.80.00" type="passenger"/>
    <trip id="92" depart="57.60" from="left2A2.80.00" to="left1A1.80.00" type="passenger"/>
    <trip id="93" depart="58.00" from="B1B2" to="B1A1" type="passenger"/>
    <trip id="94" depart="58.20" from="A2B2" to="right1C1.80.00" type="passenger"/>
    <trip id="95" depart="58.60" from="left0A0.80.00" to="A2top0" type="passenger"/>
    <trip id="96" depart="59.00" from="B0C0" to="C0right0" type="passenger"/>
    <trip id="97" depart="60.00" from="C2B2" to="A2B2.80.00" type="passenger"/>
    <trip id="98" depart="60.20" from="A0A1" to="B2A2" type="passenger"/>
    <trip id="99" depart="60.40" from="A2B2" to="B2B1.80.00" type="passenger"/>
    <trip id="100" depart="61.20" from="top0A2.80.00" to="C0C1.80.00" type="passenger"/>
    <trip id="101" depart="61.20" from="left2A2.80.00" to="C2C1" type="passenger"/>
    <trip id="102" depart="62.00" from="B0A0.80.00" to="B0A0" type="passenger"/>
    <trip id="103" depart="62.60" from="left2A2.80.00" to="A2top0" type="passenger"/>
    <trip id="104" depart="63.40" from="top2C2" to="A2top0" type="passenger"/>
    <trip id="105" depart="64.40" from="right1C1.80.00" to="C1B1.80.00" type="passenger"/>
    <trip id="106" depart="64.60" from="A1B1.80.00" to="B2C2.80.00" type="passenger"/>
    <trip id="107" depart="64.80" from="C0C1" to="A2A1.80.00" type="passenger"/>
    <trip id="108" depart="65.00" from="A2B2" to="A2A1.80.00" type="passenger"/>
    <trip id="109" depart="65.00" from="C0B0" to="A0A1.80.00" type="passenger"/>
    <trip id="110" depart="65.20" from="right2C2.80.00" to="left0A0.80.00" type="passenger"/>
    <trip id="111" depart="67.20" from="C1B1" to="A1B1" type="passenger"/>
    <trip id="112" depart="68.00" from="C1C0" to="right2C2.80.00" type="passenger"/>
    <trip id="113" depart="69.80" from="C0B0.80.00" to="A1B1" type="passenger"/>
    <trip id="114" depart="71.00" from="bottom0A0.80.00" to="top0A2.80.00" type="passenger"/>
    <trip id="115" depart="71.20" from="C0C1.80.00" to="C0C1" type="passenger"/>
    <trip id="116" depart="72.80" from="left0A0" to="C1B1" type="passenger"/>
    <trip id="117" depart="73.80" from="bottom0A0.80.00" to="A1A2" type="passenger"/>
    <trip id="118" depart="74.20" from="left0A0.80.00" to="B1B2.80.00" type="passenger"/>
    <trip id="119" depart="74.60" from="C1B1" to="B1C1.80.00" type="passenger"/>
    <trip id="120" depart="75.20" from="A2B2" to="top0A2.80.00" type="passenger"/>
    <trip id="121" depart="75.20" from="left1A1.80.00" to="A1left1" type="passenger"/>
    <trip id="122" depart="75.80" from="A1A0" to="C1C0.80.00" type="passenger"/>
    <trip id="123" depart="76.20" from="C1C2.80.00" to="B1A1" type="passenger"/>
    <trip id="124" depart="76.40" from="C1C0" to="C1C0.80.00" type="passenger"/>
    <trip id="125" depart="78.00" from="right0C0" to="bottom2C0.80.00" type="passenger"/>
    <trip id="126" depart="78.80" from="C1C2.80.00" to="A1A2.80.00" type="passenger"/>
    <trip id="127" depart="79.60" from="A2A1" to="A1A2.80.00" type="passenger"/>
    <trip id="128" depart="80.80" from="C1C0" to="left0A0.80.00" type="passenger"/>
    <trip id="129" depart="81.00" from="A1A0" to="B1A1.80.00" type="passenger"/>
    <trip id="130" depart="81.40" from="right2C2.80.00" to="B0C0.80.00" type="passenger"/>
    <trip id="131" depart="82.00" from="C1C2.80.00" to="A0bottom0" type="passenger"/>
    <trip id="132" depart="82.20" from="B1C1.80.00" to="B1C1" type="passenger"/>
    <trip id="133" depart="82.80" from="A2A1" to="A2A1.80.00" type="passenger"/>
    <trip id="134" depart="85.00" from="B2A2.80.00" to="bottom1B0.80.00" type="passenger"/>
    <trip id="135" depart="85.00" from="C1C2.80.00" to="bottom0A0.80.00" type="passenger"/>
    <trip id="136" depart="85.20" from="B1C1" to="A2left2" type="passenger"/>
    <trip id="137" depart="85.60" from="B1B0.80.00" to="A1A0.80.00" type="passenger"/>
    <trip id="138" depart="85.80" from="A1B1.80.00" to="A1B1" type="passenger"/>
    <trip id="139" depart="86.00" from="C1B1" to="A2top0" type="passenger"/>
    <trip id="140" depart="86.20" from="B2B1" to="B1A1.80.00" type="passenger"/>
    <trip id="141" depart="86.40" from="right2C2" to="B2B1.80.00" type="passenger"/>
    <trip id="142" depart="86.40" from="left1A1.80.00" to="B0B1" type="passenger"/>
    <trip id="143" depart="87.00" from="right0C0" to="C2top2" type="passenger"/>
    <trip id="144" depart="87.20" from="B1B0" to="C1C2.80.00" type="passenger"/>
    <trip id="145" depart="87.60" from="right0C0" to="A2A1.80.00" type="passenger"/>
    <trip id="146" depart="89.60" from="C1C2.80.00" to="A2B2" type="passenger"/>
    <trip id="147" depart="89.60" from="A0B0.80.00" to="B0C0" type="passenger"/>
    <trip id="148" depart="89.80" from="left1A1" to="A0left0" type="passenger"/>
    <trip id="149" depart="90.00" from="C2C1.80.00" to="top0A2.80.00" type="passenger"/>
    <trip id="150" depart="90.60" from="bottom1B0.80.00" to="A0bottom0" type="passenger"/>
    <trip id="151" depart="92.60" from="B0C0.80.00" to="right0C0.80.00" type="passenger"/>
    <trip id="152" depart="92.80" from="bottom1B0.80.00" to="C0B0" type="passenger"/>
    <trip id="153" depart="92.80" from="B1B2" to="B2B1" type="passenger"/>
    <trip id="154" depart="92.80" from="C1C0" to="C1right1" type="passenger"/>
    <trip id="155" depart="92.80" from="A2B2" to="A1B1.80.00" type="passenger"/>
    <trip id="156" depart="93.20" from="B0C0" to="B1B2" type="passenger"/>
    <trip id="157" depart="93.40" from="C1C0" to="B1A1" type="passenger"/>
    <trip id="158" depart="95.20" from="B1B0.80.00" to="C2top2" type="passenger"/>
    <trip id="159" depart="95.60" from="C0C1.80.00" to="B0A0.80.00" type="passenger"/>
    <trip id="160" depart="95.80" from="left0A0" to="C2B2" type="passenger"/>
    <trip id="161" depart="95.80" from="left2A2" to="A0A1" type="passenger"/>
    <trip id="162" depart="97.00" from="A0B0" to="C2C1" type="passenger"/>
    <trip id="163" depart="97.20" from="B2A2.80.00" to="B1B2" type="passenger"/>
    <trip id="164" depart="98.20" from="A1A0.80.00" to="B0bottom1" type="passenger"/>
    <trip id="165" depart="98.60" from="left2A2" to="B1B2.80.00" type="passenger"/>
    <trip id="166" depart="98.80" from="left0A0.80.00" to="bottom0A0.80.00" type="passenger"/>
    <trip id="167" depart="99.20" from="left1A1" to="B1B2.80.00" type="passenger"/>
    <trip id="168" depart="99.80" from="top1B2" to="A0A1" type="passenger"/>
    <trip id="169" depart="100.20" from="A0A1.80.00" to="B1B0.80.00" type="passenger"/>
    <trip id="170" depart="100.80" from="A2B2" to="right1C1.80.00" type="passenger"/>
    <trip id="171" depart="101.20" from="A2A1.80.00" to="A1A0" type="passenger"/>
    <trip id="172" depart="102.60" from="left1A1" to="C0B0" type="passenger"/>
    <trip id="173" depart="102.60" from="bottom2C0" to="B1B2" type="passenger"/>
    <trip id="174" depart="102.60" from="top1B2.80.00" to="A0B0.80.00" type="passenger"/>
    <trip id="175" depart="103.00" from="bottom0A0" to="C1C0" type="passenger"/>
    <trip id="176" depart="103.60" from="B2B1" to="B0A0.80.00" type="passenger"/>
    <trip id="177" depart="104.40" from="bottom1B0.80.00" to="left1A1.80.00" type="passenger"/>
    <trip id="178" depart="104.40" from="bottom1B0.80.00" to="C0bottom2" type="passenger"/>
    <trip id="179" depart="104.60" from="A0A1.80.00" to="B2A2.80.00" type="passenger"/>
    <trip id="180" depart="104.60" from="A0A1" to="C1C0.80.00" type="passenger"/>
    <trip id="181" depart="106.80" from="left0A0" to="B0A0.80.00" type="passenger"/>
    <trip id="182" depart="107.00" from="top0A2" to="B0bottom1" type="passenger"/>
    <trip id="183" depart="107.40" from="A0B0.80.00" to="B1B0" type="passenger"/>
    <trip id="184" depart="108.40" from="C1C2.80.00" to="C1B1.80.00" type="passenger"/>
    <trip id="185" depart="108.60" from="bottom0A0.80.00" to="A2A1" type="passenger"/>
    <trip id="186" depart="109.40" from="B2C2" to="B0C0.80.00" type="passenger"/>
    <trip id="187" depart="111.20" from="right2C2" to="top0A2.80.00" type="passenger"/>
    <trip id="188" depart="111.20" from="B2B1" to="C1C2" type="passenger"/>
    <trip id="189" depart="111.20" from="A0A1.80.00" to="B0C0" type="passenger"/>
    <trip id="190" depart="111.60" from="bottom0A0" to="A0left0" type="passenger"/>
    <trip id="191" depart="111.80" from="C0C1" to="right0C0.80.00" type="passenger"/>
    <trip id="192" depart="112.00" from="left0A0" to="C2B2" type="passenger"/>
    <trip id="193" depart="113.20" from="left1A1" to="B0B1" type="passenger"/>
    <trip id="194" depart="113.80" from="C1C0.80.00" to="A1A0.80.00" type="passenger"/>
    <trip id="195" depart="114.80" from="A2A1" to="B1A1" type="passenger"/>
    <trip id="196" depart="114.80" from="right1C1.80.00" to="C2top2" type="passenger"/>
    <trip id="197" depart="115.00" from="A1A2" to="bottom2C0.80.00" type="passenger"/>
    <trip id="198" depart="115.60" from="top2C2" to="C1C0" type="passenger"/>
    <trip id="199" depart="116.00" from="B1B0" to="B1B2" type="passenger"/>
    <trip id="200" depart="119.40" from="B1A1.80.00" to="B0B1" type="passenger"/>
    <trip id="201" depart="122.00" from="B0A0" to="C0B0" type="passenger"/>
    <trip id="202" depart="123.00" from="C2B2.80.00" to="A2B2.80.00" type="passenger"/>
    <trip id="203" depart="123.00" from="B1B2" to="A2A1.80.00" type="passenger"/>
    <trip id="204" depart="124.40" from="top0A2" to="C0B0" type="passenger"/>
    <trip id="205" depart="124.80" from="top0A2.80.00" to="C2C1" type="passenger"/>
    <trip id="206" depart="125.00" from="C0B0.80.00" to="C1B1.80.00" type="passenger"/>
    <trip id="207" depart="125.20" from="B2A2.80.00" to="B0bottom1" type="passenger"/>
    <trip id="208" depart="125.20" from="C1B1.80.00" to="C0B0.80.00" type="passenger"/>
    <trip id="209" depart="126.20" from="C2B2.80.00" to="bottom2C0.80.00" type="passenger"/>
    <trip id="210" depart="126.60" from="C1C0.80.00" to="C1B1.80.00" type="passenger"/>
    <trip id="211" depart="126.60" from="B2A2.80.00" to="A2B2.80.00" type="passenger"/>
    <trip id="212" depart="127.40" from="right1C1" to="C1B1" type="passenger"/>
    <trip id="213" depart="128.20" from="C1C2.80.00" to="B1B0.80.00" type="passenger"/>
    <trip id="214" depart="128.60" from="C1C2.80.00" to="A0bottom0" type="passenger"/>
    <trip id="215" depart="128.60" from="bottom1B0.80.00" to="A2A1" type="passenger"/>
    <trip id="216" depart="128.80" from="C2C1.80.00" to="A0A1" type="passenger"/>
    <trip id="217" depart="129.20" from="right2C2.80.00" to="B2A2" type="passenger"/>
    <trip id="218" depart="129.60" from="A1A0" to="A2B2" type="passenger"/>
    <trip id="219" depart="129.60" from="C1B1.80.00" to="B0B1" type="passenger"/>
    <trip id="220" depart="130.20" from="left0A0" to="B1B2.80.00" type="passenger"/>
    <trip id="221" depart="130.20" from="C1C0" to="C2B2" type="passenger"/>
    <trip id="222" depart="130.40" from="B0A0.80.00" to="C1B1.80.00" type="passenger"/>
    <trip id="223" depart="131.60" from="left0A0" to="right0C0.80.00" type="passenger"/>
    <trip id="224" depart="133.60" from="bottom1B0.80.00" to="B2A2" type="passenger"/>
    <trip id="225" depart="133.80" from="bottom1B0.80.00" to="C1right1" type="passenger"/>
    <trip id="226" depart="135.40" from="B2C2" to="B2B1" type="passenger"/>
    <trip id="227" depart="136.20" from="left2A2" to="B1C1.80.00" type="passenger"/>
    <trip id="228" depart="136.40" from="top1B2.80.00" to="left1A1.80.00" type="passenger"/>
    <trip id="229" depart="137.00" from="bottom1B0.80.00" to="A0left0" type="passenger"/>
    <trip id="230" depart="137.20" from="left2A2.80.00" to="A1A2" type="passenger"/>
    <trip id="231" depart="138.40" from="B1A1" to="A1A2.80.00" type="passenger"/>
    <trip id="232" depart="139.40" from="C2B2.80.00" to="left2A2.80.00" type="passenger"/>
    <trip id="233" depart="140.00" from="right2C2.80.00" to="bottom0A0.80.00" type="passenger"/>
    <trip id="234" depart="140.80" from="C1C0.80.00" to="A2B2" type="passenger"/>
    <trip id="235" depart="140.80" from="top1B2.80.00" to="A0left0" type="passenger"/>
    <trip id="236" depart="141.80" from="left1A1" to="C0B0.80.00" type="passenger"/>
    <trip id="237" depart="142.00" from="B0A0.80.00" to="B1A1.80.00" type="passenger"/>
    <trip id="238" depart="142.60" from="B2B1.80.00" to="C0C1" type="passenger"/>
    <trip id="239" depart="145.20" from="top2C2.80.00" to="B1B2.80.00" type="passenger"/>
    <trip id="240" depart="145.20" from="B1A1.80.00" to="B2C2.80.00" type="passenger"/>
    <trip id="241" depart="146.00" from="C0B0.80.00" to="B0C0.80.00" type="passenger"/>
    <trip id="242" depart="146.60" from="right1C1.80.00" to="C0C1.80.00" type="passenger"/>
    <trip id="243" depart="146.80" from="top2C2.80.00" to="A1A2.80.00" type="passenger"/>
    <trip id="244" depart="148.40" from="B0C0" to="top1B2.80.00" type="passenger"/>
    <trip id="245" depart="149.60" from="C0C1" to="right2C2.80.00" type="passenger"/>
    <trip id="246" depart="151.00" from="B2C2.80.00" to="A1B1.80.00" type="passenger"/>
    <trip id="247" depart="152.20" from="right2C2.80.00" to="top2C2.80.00" type="passenger"/>
    <trip id="248" depart="154.00" from="C0C1" to="C0B0" type="passenger"/>
    <trip id="249" depart="154.80" from="B1A1" to="B2C2.80.00" type="passenger"/>
    <trip id="250" depart="155.00" from="B2A2.80.00" to="C1C0.80.00" type="passenger"/>
    <trip id="251" depart="155.40" from="C2B2.80.00" to="C0bottom2" type="passenger"/>
    <trip id="252" depart="156.40" from="B1C1.80.00" to="B1B2" type="passenger"/>
    <trip id="253" depart="156.60" from="right2C2" to="A1A2" type="passenger"/>
    <trip id="254" depart="157.00" from="top2C2.80.00" to="right2C2.80.00" type="passenger"/>
    <trip id="255" depart="159.60" from="C1C2" to="B1B2" type="passenger"/>
    <trip id="256" depart="159.80" from="B2A2.80.00" to="C0right0" type="passenger"/>
    <trip id="257" depart="161.00" from="bottom0A0.80.00" to="C2C1" type="passenger"/>
    <trip id="258" depart="161.20" from="top2C2" to="A1A2" type="passenger"/>
    <trip id="259" depart="162.00" from="top2C2" to="A1A2" type="passenger"/>
    <trip id="260" depart="162.80" from="B1B2.80.00" to="A1A2" type="passenger"/>
    <trip id="261" depart="163.00" from="top2C2.80.00" to="top2C2.80.00" type="passenger"/>
    <trip id="262" depart="163.80" from="right0C0" to="B1C1.80.00" type="passenger"/>
    <trip id="263" depart="163.80" from="left2A2.80.00" to="C2B2" type="passenger"/>
    <trip id="264" depart="163.80" from="C1C0" to="A2A1" type="passenger"/>
    <trip id="265" depart="164.40" from="B2A2.80.00" to="A1B1" type="passenger"/>
    <trip id="266" depart="165.20" from="B2A2" to="B1A1.80.00" type="passenger"/>
    <trip id="267" depart="165.40" from="A2A1.80.00" to="C1C0.80.00" type="passenger"/>
    <trip id="268" depart="166.20" from="C0C1.80.00" to="C1C2" type="passenger"/>
    <trip id="269" depart="166.40" from="C0C1.80.00" to="top0A2.80.00" type="passenger"/>
    <trip id="270" depart="166.40" from="C1C2" to="B2C2" type="passenger"/>
    <trip id="271" depart="166.80" from="C1C0.80.00" to="B1B0.80.00" type="passenger"/>
    <trip id="272" depart="167.60" from="C0C1.80.00" to="bottom2C0.80.00" type="passenger"/>
    <trip id="273" depart="168.00" from="B2C2.80.00" to="B1C1" type="passenger"/>
    <trip id="274" depart="168.20" from="right0C0.80.00" to="top2C2.80.00" type="passenger"/>
    <trip id="275" depart="168.40" from="B1B2" to="A0bottom0" type="passenger"/>
    <trip id="276" depart="170.20" from="bottom0A0.80.00" to="A1A2" type="passenger"/>
    <trip id="277" depart="170.40" from="right2C2" to="B0bottom1" type="passenger"/>
    <trip id="278" depart="171.40" from="C0C1" to="C1C0.80.00" type="passenger"/>
    <trip id="279" depart="171.60" from="C1B1.80.00" to="B0bottom1" type="passenger"/>
    <trip id="280" depart="171.80" from="bottom2C0" to="C1C0.80.00" type="passenger"/>
    <trip id="281" depart="174.00" from="C2B2" to="C1B1.80.00" type="passenger"/>
    <trip id="282" depart="174.20" from="C2C1" to="C0C1" type="passenger"/>
    <trip id="283" depart="174.60" from="B1B0.80.00" to="C2C1.80.00" type="passenger"/>
    <trip id="284" depart="175.20" from="B0B1.80.00" to="A1B1.80.00" type="passenger"/>
    <trip id="285" depart="176.20" from="C2B2" to="B0A0.80.00" type="passenger"/>
    <trip id="286" depart="176.80" from="C0C1" to="bottom0A0.80.00" type="passenger"/>
    <trip id="287" depart="177.00" from="B1B2.80.00" to="C1C2" type="passenger"/>
    <trip id="288" depart="178.40" from="right0C0.80.00" to="C2C1" type="passenger"/>
    <trip id="289" depart="179.80" from="B2B1.80.00" to="left2A2.80.00" type="passenger"/>
    <trip id="290" depart="180.40" from="A1A2.80.00" to="C2top2" type="passenger"/>
    <trip id="291" depart="180.60" from="B1B2" to="B2C2" type="passenger"/>
    <trip id="292" depart="181.60" from="B2A2.80.00" to="B1B2" type="passenger"/>
    <trip id="293" depart="181.80" from="top1B2" to="C2B2" type="passenger"/>
    <trip id="294" depart="183.00" from="C2B2" to="B1C1.80.00" type="passenger"/>
    <trip id="295" depart="184.40" from="A2B2" to="A0bottom0" type="passenger"/>
    <trip id="296" depart="184.80" from="right0C0.80.00" to="A1A2" type="passenger"/>
    <trip id="297" depart="184.80" from="B1B0.80.00" to="B1A1" type="passenger"/>
    <trip id="298" depart="186.60" from="B0A0.80.00" to="C0C1.80.00" type="passenger"/>
    <trip id="299" depart="187.00" from="C1B1.80.00" to="B0bottom1" type="passenger"/>
    <trip id="300" depart="187.40" from="B1C1" to="A2A1.80.00" type="passenger"/>
    <trip id="301" depart="187.40" from="B2A2" to="A0B0" type="passenger"/>
    <trip id="302" depart="187.80" from="top2C2" to="B2B1" type="passenger"/>
    <trip id="303" depart="189.20" from="top2C2.80.00" to="B0bottom1" type="passenger"/>
    <trip id="304" depart="190.00" from="C1B1" to="top0A2.80.00" type="passenger"/>
    <trip id="305" depart="191.00" from="B2A2" to="B0bottom1" type="passenger"/>
    <trip id="306" depart="191.20" from="A2A1" to="B2B1.80.00" type="passenger"/>
    <trip id="307" depart="192.00" from="A2B2.80.00" to="A0bottom0" type="passenger"/>
    <trip id="308" depart="193.00" from="A2B2" to="right0C0.80.00" type="passenger"/>
    <trip id="309" depart="193.80" from="top0A2.80.00" to="B0C0" type="passenger"/>
    <trip id="310" depart="193.80" from="B1C1.80.00" to="B2B1" type="passenger"/>
    <trip id="311" depart="194.00" from="C2C1" to="B1B0" type="passenger"/>
    <trip id="312" depart="194.80" from="right2C2" to="A2B2" type="passenger"/>
    <trip id="313" depart="195.00" from="A0A1" to="C2C1" type="passenger"/>
    <trip id="314" depart="195.00" from="A0B0.80.00" to="A2top0" type="passenger"/>
    <trip id="315" depart="195.60" from="A1A0.80.00" to="C1C2" type="passenger"/>
    <trip id="316" depart="196.00" from="right0C0" to="C0B0.80.00" type="passenger"/>
    <trip id="317" depart="199.00" from="top2C2" to="right2C2.80.00" type="passenger"/>
    <trip id="318" depart="200.60" from="B2B1.80.00" to="A1A2.80.00" type="passenger"/>
    <trip id="319" depart="200.80" from="C1C2" to="B2top1" type="passenger"/>
    <trip id="320" depart="201.20" from="C2C1" to="A2A1" type="passenger"/>
    <trip id="321" depart="201.40" from="A1A0.80.00" to="B2C2.80.00" type="passenger"/>
    <trip id="322" depart="202.20" from="B1B2" to="B0B1" type="passenger"/>
    <trip id="323" depart="203.40" from="B1B2.80.00" to="bottom2C0.80.00" type="passenger"/>
    <trip id="324" depart="203.80" from="B2A2" to="C2right2" type="passenger"/>
    <trip id="325" depart="203.80" from="C1C2.80.00" to="A0left0" type="passenger"/>
    <trip id="326" depart="204.40" from="C1B1" to="C2B2" type="passenger"/>
    <trip id="327" depart="204.60" from="top1B2.80.00" to="bottom0A0.80.00" type="passenger"/>
    <trip id="328" depart="205.40" from="A1A2" to="B0bottom1" type="passenger"/>
    <trip id="329" depart="205.80" from="A1A0.80.00" to="B1B0.80.00" type="passenger"/>
    <trip id="330" depart="206.20" from="top0A2.80.00" to="bottom0A0.80.00" type="passenger"/>
    <trip id="331" depart="206.40" from="C1B1" to="left0A0.80.00" type="passenger"/>
    <trip id="332" depart="207.00" from="C1C0.80.00" to="B1C1.80.00" type="passenger"/>
    <trip id="333" depart="207.40" from="C1C2.80.00" to="A2A1" type="passenger"/>
    <trip id="334" depart="207.40" from="B2C2.80.00" to="C0right0" type="passenger"/>
    <trip id="335" depart="207.60" from="C1C0" to="C0B0" type="passenger"/>
    <trip id="336" depart="208.60" from="C2C1" to="B1C1" type="passenger"/>
    <trip id="337" depart="209.20" from="A0A1.80.00" to="C1C0" type="passenger"/>
    <trip id="338" depart="209.60" from="C1C2.80.00" to="A1left1" type="passenger"/>
    <trip id="339" depart="209.80" from="C0C1.80.00" to="B0A0.80.00" type="passenger"/>
    <trip id="340" depart="210.40" from="C0C1.80.00" to="A0left0" type="passenger"/>
    <trip id="341" depart="210.80" from="C1C2" to="B2B1" type="passenger"/>
    <trip id="342" depart="213.00" from="C1C2" to="A2A1" type="passenger"/>
    <trip id="343" depart="213.00" from="left0A0" to="bottom1B0.80.00" type="passenger"/>
    <trip id="344" depart="213.40" from="right1C1.80.00" to="A1B1" type="passenger"/>
    <trip id="345" depart="214.20" from="C2B2" to="A2B2" type="passenger"/>
    <trip id="346" depart="214.60" from="A0B0.80.00" to="top2C2.80.00" type="passenger"/>
    <trip id="347" depart="214.60" from="bottom1B0.80.00" to="C2C1" type="passenger"/>