<?xml version="1.0" encoding="UTF-8"?>

<!-- generated on 2023-02-12 18:47:10.092775 by randomTrips.py UNKNOWN
<configuration>
    <begin value="0"/>
    <end value="900"/>
    <insertion-rate value="12500.0"/>
    <net-file value="/home/franky3er/Documents/code/HieraGLight/scenarios/grid/5x5-150m/train/85-scenario/network.net.xml"/>
    <random value="True"/>
    <random-depart value="True"/>
    <route-file value="/home/franky3er/Documents/code/HieraGLight/scenarios/grid/5x5-150m/train/85-scenario/routes.rou.xml"/>
    <seed value="85"/>
    <output-trip-file value="/home/franky3er/Documents/code/HieraGLight/scenarios/grid/5x5-150m/train/85-scenario/trips.trips.xml"/>
    <vehicle-class value="passenger"/>
</configuration>
-->

<routes xmlns:xsi="http://www.w3.org/2001/XMLSchema-instance" xsi:noNamespaceSchemaLocation="http://sumo.dlr.de/xsd/routes_file.xsd">
    <vType id="passenger" vClass="passenger"/>
    <trip id="0" depart="0.45" from="E2E1" to="C0D0" type="passenger"/>
    <trip id="1" depart="0.52" from="B3A3" to="bottom1B0.80.00" type="passenger"/>
    <trip id="2" depart="0.81" from="C1D1.80.00" to="D3E3.80.00" type="passenger"/>
    <trip id="3" depart="0.82" from="top0A4" to="E2D2.80.00" type="passenger"/>
    <trip id="4" depart="0.88" from="D3D2" to="C0B0.80.00" type="passenger"/>
    <trip id="5" depart="0.98" from="A2B2" to="C3C2" type="passenger"/>
    <trip id="6" depart="1.18" from="E1E2" to="B4A4.80.00" type="passenger"/>
    <trip id="7" depart="1.34" from="E2E1" to="E0D0" type="passenger"/>
    <trip id="8" depart="1.58" from="B0C0.80.00" to="C1C2" type="passenger"/>
    <trip id="9" depart="1.63" from="E1D1" to="C2C1.80.00" type="passenger"/>
    <trip id="10" depart="2.19" from="D3E3.80.00" to="B2B1" type="passenger"/>
    <trip id="11" depart="2.81" from="left2A2.80.00" to="D1E1" type="passenger"/>
    <trip id="12" depart="3.84" from="D2D3" to="B2B1" type="passenger"/>
    <trip id="13" depart="4.02" from="top4E4" to="C1B1.80.00" type="passenger"/>
    <trip id="14" depart="4.69" from="C3C4.80.00" to="D4D3" type="passenger"/>
    <trip id="15" depart="4.75" from="D2D3" to="bottom4E0.80.00" type="passenger"/>
    <trip id="16" depart="5.05" from="top2C4.80.00" to="E3D3.80.00" type="passenger"/>
    <trip id="17" depart="5.08" from="C1C2.80.00" to="D4C4.80.00" type="passenger"/>
    <trip id="18" depart="5.62" from="D0C0" to="D4D3.80.00" type="passenger"/>
    <trip id="19" depart="5.82" from="right3E3" to="E2E3" type="passenger"/>
    <trip id="20" depart="6.10" from="E3D3" to="E0D0" type="passenger"/>
    <trip id="21" depart="6.16" from="C0D0.80.00" to="D2E2.80.00" type="passenger"/>
    <trip id="22" depart="6.31" from="C0C1.80.00" to="A0A1.80.00" type="passenger"/>
    <trip id="23" depart="6.35" from="C4D4" to="D3C3.80.00" type="passenger"/>
    <trip id="24" depart="6.42" from="right3E3.80.00" to="D3D4" type="passenger"/>
    <trip id="25" depart="6.50" from="C1B1" to="A1A0.80.00" type="passenger"/>
    <trip id="26" depart="6.53" from="C4D4" to="D1D0.80.00" type="passenger"/>
    <trip id="27" depart="6.62" from="D0C0.80.00" to="C2D2.80.00" type="passenger"/>
    <trip id="28" depart="7.51" from="D2D1.80.00" to="C0C1" type="passenger"/>
    <trip id="29" depart="7.53" from="B1B0.80.00" to="E2E3.80.00" type="passenger"/>
    <trip id="30" depart="7.82" from="B4A4.80.00" to="top3D4.80.00" type="passenger"/>
    <trip id="31" depart="7.87" from="bottom2C0.80.00" to="C3C2" type="passenger"/>
    <trip id="32" depart="8.51" from="D2D1" to="D0E0" type="passenger"/>
    <trip id="33" depart="10.24" from="E2E3.80.00" to="D1C1.80.00" type="passenger"/>
    <trip id="34" depart="10.46" from="D2D3" to="B3B4" type="passenger"/>
    <trip id="35" depart="10.80" from="right4E4" to="E2D2.80.00" type="passenger"/>
    <trip id="36" depart="11.29" from="right1E1.80.00" to="top1B4.80.00" type="passenger"/>
    <trip id="37" depart="11.70" from="D0C0" to="E2E1" type="passenger"/>
    <trip id="38" depart="11.96" from="left4A4" to="left2A2.80.00" type="passenger"/>
    <trip id="39" depart="12.96" from="B1B0.80.00" to="C3C4.80.00" type="passenger"/>
    <trip id="40" depart="13.22" from="D2E2.80.00" to="D1D0.80.00" type="passenger"/>
    <trip id="41" depart="13.35" from="bottom2C0" to="C2C1" type="passenger"/>
    <trip id="42" depart="14.38" from="D0D1" to="C2B2" type="passenger"/>
    <trip id="43" depart="14.55" from="E0D0" to="A1A0.80.00" type="passenger"/>
    <trip id="44" depart="15.22" from="D0C0.80.00" to="A1A2.80.00" type="passenger"/>
    <trip id="45" depart="15.62" from="A2B2.80.00" to="A3left3" type="passenger"/>
    <trip id="46" depart="15.71" from="D1C1.80.00" to="top4E4.80.00" type="passenger"/>
    <trip id="47" depart="15.82" from="top1B4" to="A3B3" type="passenger"/>
    <trip id="48" depart="15.86" from="D3E3" to="C2B2.80.00" type="passenger"/>
    <trip id="49" depart="15.99" from="top3D4.80.00" to="A3B3" type="passenger"/>
    <trip id="50" depart="16.52" from="C0C1" to="B0B1.80.00" type="passenger"/>
    <trip id="51" depart="16.61" from="B1B2" to="B2B1" type="passenger"/>
    <trip id="52" depart="16.79" from="D4E4" to="E1E2.80.00" type="passenger"/>
    <trip id="53" depart="16.98" from="B0C0.80.00" to="C0D0" type="passenger"/>
    <trip id="54" depart="17.10" from="A1A2" to="D2D1.80.00" type="passenger"/>
    <trip id="55" depart="17.10" from="E2E1.80.00" to="top4E4.80.00" type="passenger"/>
    <trip id="56" depart="17.36" from="C1D1.80.00" to="A4top0" type="passenger"/>
    <trip id="57" depart="17.50" from="B1C1.80.00" to="B2B1" type="passenger"/>
    <trip id="58" depart="18.10" from="B0C0" to="A1B1.80.00" type="passenger"/>
    <trip id="59" depart="18.12" from="B4C4" to="right2E2.80.00" type="passenger"/>
    <trip id="60" depart="18.90" from="E0D0" to="C4top2" type="passenger"/>
    <trip id="61" depart="19.09" from="A1A2" to="A4B4.80.00" type="passenger"/>
    <trip id="62" depart="19.37" from="C3D3.80.00" to="C3C4.80.00" type="passenger"/>
    <trip id="63" depart="19.50" from="C2B2.80.00" to="C2B2" type="passenger"/>
    <trip id="64" depart="19.70" from="B3C3" to="D4D3" type="passenger"/>
    <trip id="65" depart="20.53" from="E1D1.80.00" to="D1D2.80.00" type="passenger"/>
    <trip id="66" depart="21.16" from="left0A0.80.00" to="B2B3.80.00" type="passenger"/>
    <trip id="67" depart="21.83" from="C3C4.80.00" to="B0bottom1" type="passenger"/>
    <trip id="68" depart="22.26" from="E4E3.80.00" to="A0bottom0" type="passenger"/>
    <trip id="69" depart="22.59" from="D4E4" to="C1C2" type="passenger"/>
    <trip id="70" depart="22.67" from="C3D3" to="E3E4" type="passenger"/>
    <trip id="71" depart="22.73" from="C0D0" to="B2B1" type="passenger"/>
    <trip id="72" depart="22.82" from="C3C4.80.00" to="A3A4" type="passenger"/>
    <trip id="73" depart="23.31" from="E2E3" to="C2C1" type="passenger"/>
    <trip id="74" depart="23.49" from="A0B0.80.00" to="A1B1" type="passenger"/>
    <trip id="75" depart="25.18" from="E3D3.80.00" to="top1B4.80.00" type="passenger"/>
    <trip id="76" depart="25.36" from="C3C4" to="A2A3" type="passenger"/>
    <trip id="77" depart="26.45" from="D2E2.80.00" to="C4B4" type="passenger"/>
    <trip id="78" depart="26.62" from="B3B2.80.00" to="D2C2.80.00" type="passenger"/>
    <trip id="79" depart="26.87" from="D3C3" to="D3C3.80.00" type="passenger"/>
    <trip id="80" depart="27.18" from="C2C3.80.00" to="B2B3" type="passenger"/>
    <trip id="81" depart="27.21" from="B2B3" to="D2E2.80.00" type="passenger"/>
    <trip id="82" depart="27.68" from="E3E2" to="bottom3D0.80.00" type="passenger"/>
    <trip id="83" depart="27.95" from="E1E2" to="top2C4.80.00" type="passenger"/>
    <trip id="84" depart="28.17" from="right0E0.80.00" to="A2A3" type="passenger"/>
    <trip id="85" depart="28.45" from="B3B4.80.00" to="B4C4" type="passenger"/>
    <trip id="86" depart="28.73" from="C2C3.80.00" to="B2A2" type="passenger"/>
    <trip id="87" depart="29.26" from="C2C1.80.00" to="B3B2" type="passenger"/>
    <trip id="88" depart="29.35" from="C3C2" to="bottom4E0.80.00" type="passenger"/>
    <trip id="89" depart="29.45" from="right3E3.80.00" to="B3B4" type="passenger"/>
    <trip id="90" depart="29.74" from="E1E2.80.00" to="top4E4.80.00" type="passenger"/>
    <trip id="91" depart="29.99" from="D2D1.80.00" to="E2E3.80.00" type="passenger"/>
    <trip id="92" depart="30.07" from="E1E0" to="B2B3.80.00" type="passenger"/>
    <trip id="93" depart="30.08" from="C0C1.80.00" to="E0bottom4" type="passenger"/>
    <trip id="94" depart="30.47" from="bottom1B0.80.00" to="top3D4.80.00" type="passenger"/>
    <trip id="95" depart="30.77" from="B2B3.80.00" to="D3C3.80.00" type="passenger"/>
    <trip id="96" depart="31.11" from="B3B4.80.00" to="top2C4.80.00" type="passenger"/>
    <trip id="97" depart="31.21" from="A3B3" to="A0A1.80.00" type="passenger"/>
    <trip id="98" depart="31.25" from="C1C2" to="B2B1.80.00" type="passenger"/>
    <trip id="99" depart="31.51" from="B2C2.80.00" to="A2B2.80.00" type="passenger"/>
    <trip id="100" depart="31.52" from="E3E4.80.00" to="A4B4" type="passenger"/>
    <trip id="101" depart="31.58" from="B0C0" to="E0D0" type="passenger"/>
    <trip id="102" depart="31.70" from="top1B4" to="A0B0" type="passenger"/>
    <trip id="103" depart="31.91" from="A4A3.80.00" to="D2D1" type="passenger"/>
    <trip id="104" depart="31.95" from="C4B4.80.00" to="E4right4" type="passenger"/>
    <trip id="105" depart="32.09" from="B0B1.80.00" to="B3B4" type="passenger"/>
    <trip id="106" depart="32.26" from="left4A4.80.00" to="C2C3.80.00" type="passenger"/>
    <trip id="107" depart="32.58" from="left2A2.80.00" to="E3E4" type="passenger"/>
    <trip id="108" depart="32.94" from="C0B0" to="E2D2" type="passenger"/>
    <trip id="109" depart="33.10" from="A4B4" to="E1E0.80.00" type="passenger"/>
    <trip id="110" depart="33.20" from="D1D2" to="D4C4.80.00" type="passenger"/>
    <trip id="111" depart="33.78" from="B1C1" to="D4E4.80.00" type="passenger"/>
    <trip id="112" depart="34.21" from="A1A0" to="E2E3.80.00" type="passenger"/>
    <trip id="113" depart="34.88" from="A1A0.80.00" to="bottom1B0.80.00" type="passenger"/>
    <trip id="114" depart="35.75" from="D3D4" to="B1B2" type="passenger"/>
    <trip id="115" depart="35.95" from="D1D2" to="A2A3" type="passenger"/>
    <trip id="116" depart="36.15" from="A1A0.80.00" to="top2C4.80.00" type="passenger"/>
    <trip id="117" depart="36.50" from="right0E0" to="C4D4.80.00" type="passenger"/>
    <trip id="118" depart="36.82" from="B4C4.80.00" to="E2right2" type="passenger"/>
    <trip id="119" depart="36.86" from="B4B3.80.00" to="E4D4.80.00" type="passenger"/>
    <trip id="120" depart="36.89" from="C4C3.80.00" to="C4B4.80.00" type="passenger"/>
    <trip id="121" depart="37.18" from="C3C2.80.00" to="D4top3" type="passenger"/>
    <trip id="122" depart="37.29" from="D0D1" to="C0D0.80.00" type="passenger"/>
    <trip id="123" depart="37.78" from="A1B1" to="B0B1" type="passenger"/>
    <trip id="124" depart="38.02" from="C2C1" to="D1C1.80.00" type="passenger"/>
    <trip id="125" depart="38.58" from="A4B4.80.00" to="B0A0.80.00" type="passenger"/>
    <trip id="126" depart="38.74" from="C2B2.80.00" to="C2B2.80.00" type="passenger"/>
    <trip id="127" depart="38.98" from="D0C0" to="bottom2C0.80.00" type="passenger"/>
    <trip id="128" depart="39.22" from="left1A1" to="D0D1" type="passenger"/>
    <trip id="129" depart="39.61" from="A0A1.80.00" to="bottom3D0.80.00" type="passenger"/>
    <trip id="130" depart="39.66" from="D1C1" to="E0E1.80.00" type="passenger"/>
    <trip id="131" depart="40.37" from="C2C1" to="C2C3" type="passenger"/>
    <trip id="132" depart="40.62" from="left2A2" to="B4C4" type="passenger"/>
    <trip id="133" depart="41.10" from="D1D2" to="top3D4.80.00" type="passenger"/>
    <trip id="134" depart="41.18" from="top0A4" to="B2A2" type="passenger"/>
    <trip id="135" depart="41.54" from="bottom0A0" to="E0E1.80.00" type="passenger"/>
    <trip id="136" depart="41.76" from="E2E3" to="C2C3" type="passenger"/>
    <trip id="137" depart="42.67" from="A1A2.80.00" to="D3E3" type="passenger"/>
    <trip id="138" depart="43.41" from="E1E0.80.00" to="A3left3" type="passenger"/>
    <trip id="139" depart="43.41" from="A3A2.80.00" to="B3B2" type="passenger"/>
    <trip id="140" depart="43.88" from="B0A0.80.00" to="B3B4" type="passenger"/>
    <trip id="141" depart="43.93" from="A2B2.80.00" to="B2A2" type="passenger"/>
    <trip id="142" depart="44.02" from="B3B4" to="B1B0" type="passenger"/>
    <trip id="143" depart="44.02" from="D2D3.80.00" to="E2E1.80.00" type="passenger"/>
    <trip id="144" depart="44.18" from="left1A1.80.00" to="A1A2.80.00" type="passenger"/>
    <trip id="145" depart="44.25" from="D0C0.80.00" to="E4right4" type="passenger"/>
    <trip id="146" depart="44.80" from="A3A4.80.00" to="bottom0A0.80.00" type="passenger"/>
    <trip id="147" depart="44.88" from="E3D3" to="D1D0" type="passenger"/>
    <trip id="148" depart="45.17" from="E2E3.80.00" to="C2B2.80.00" type="passenger"/>
    <trip id="149" depart="45.78" from="B3A3" to="B1C1" type="passenger"/>
    <trip id="150" depart="46.26" from="top3D4.80.00" to="A1A0.80.00" type="passenger"/>
    <trip id="151" depart="47.38" from="left3A3.80.00" to="B3B2.80.00" type="passenger"/>
    <trip id="152" depart="48.30" from="A1A2.80.00" to="C0B0" type="passenger"/>
    <trip id="153" depart="48.38" from="top0A4" to="C4C3.80.00" type="passenger"/>
    <trip id="154" depart="48.39" from="right0E0" to="B4B3.80.00" type="passenger"/>
    <trip id="155" depart="48.85" from="top1B4" to="B3C3" type="passenger"/>
    <trip id="156" depart="49.08" from="bottom1B0" to="bottom4E0.80.00" type="passenger"/>
    <trip id="157" depart="49.50" from="C3C2.80.00" to="B1C1" type="passenger"/>
    <trip id="158" depart="49.56" from="right4E4" to="D1E1" type="passenger"/>
    <trip id="159" depart="50.06" from="top0A4.80.00" to="A4B4.80.00" type="passenger"/>
    <trip id="160" depart="50.39" from="D3D4.80.00" to="E2right2" type="passenger"/>
    <trip id="161" depart="50.76" from="B1C1" to="E4E3" type="passenger"/>
    <trip id="162" depart="51.22" from="A4B4" to="E2E3.80.00" type="passenger"/>
    <trip id="163" depart="51.22" from="B3A3.80.00" to="B1C1" type="passenger"/>
    <trip id="164" depart="51.64" from="B0C0" to="B0C0" type="passenger"/>
    <trip id="165" depart="52.46" from="A1B1.80.00" to="D3E3.80.00" type="passenger"/>
    <trip id="166" depart="53.36" from="A2A1.80.00" to="D1E1.80.00" type="passenger"/>
    <trip id="167" depart="53.58" from="D3C3" to="B0B1" type="passenger"/>
    <trip id="168" depart="53.89" from="D3E3" to="B1B0" type="passenger"/>
    <trip id="169" depart="54.10" from="A4B4.80.00" to="A0B0" type="passenger"/>
    <trip id="170" depart="54.18" from="B2B1.80.00" to="C1C0" type="passenger"/>
    <trip id="171" depart="54.74" from="top1B4" to="A0A1" type="passenger"/>
    <trip id="172" depart="54.86" from="A3A2" to="B1B0" type="passenger"/>
    <trip id="173" depart="55.28" from="E4E3" to="bottom3D0.80.00" type="passenger"/>
    <trip id="174" depart="55.58" from="C1C2.80.00" to="C2C1" type="passenger"/>
    <trip id="175" depart="55.68" from="left3A3.80.00" to="E3E4" type="passenger"/>
    <trip id="176" depart="56.22" from="C3D3" to="C4top2" type="passenger"/>
    <trip id="177" depart="56.36" from="left3A3.80.00" to="D3C3.80.00" type="passenger"/>
    <trip id="178" depart="57.05" from="D4E4" to="C2C1.80.00" type="passenger"/>
    <trip id="179" depart="57.12" from="B1A1.80.00" to="A0A1.80.00" type="passenger"/>
    <trip id="180" depart="57.30" from="C2C3.80.00" to="A0B0.80.00" type="passenger"/>
    <trip id="181" depart="57.78" from="E1E0" to="D1D0.80.00" type="passenger"/>
    <trip id="182" depart="57.86" from="B2A2" to="B4C4.80.00" type="passenger"/>
    <trip id="183" depart="58.09" from="B0B1" to="B3B4" type="passenger"/>
    <trip id="184" depart="58.26" from="C0C1" to="E3E2.80.00" type="passenger"/>
    <trip id="185" depart="58.40" from="E3E2.80.00" to="C2B2" type="passenger"/>
    <trip id="186" depart="58.82" from="D0D1.80.00" to="D0bottom3" type="passenger"/>
    <trip id="187" depart="59.01" from="B3B2.80.00" to="E0E1.80.00" type="passenger"/>
    <trip id="188" depart="59.37" from="D0C0.80.00" to="C0D0" type="passenger"/>
    <trip id="189" depart="59.53" from="top1B4.80.00" to="B0bottom1" type="passenger"/>
    <trip id="190" depart="59.82" from="C3C4" to="B1A1.80.00" type="passenger"/>
    <trip id="191" depart="60.15" from="top2C4.80.00" to="A1A0.80.00" type="passenger"/>
    <trip id="192" depart="60.18" from="C4D4" to="D4E4.80.00" type="passenger"/>
    <trip id="193" depart="60.35" from="C3C2" to="D4E4.80.00" type="passenger"/>
    <trip id="194" depart="60.56" from="B1C1.80.00" to="D4D3.80.00" type="passenger"/>
    <trip id="195" depart="60.57" from="D3D2.80.00" to="A1A0" type="passenger"/>
    <trip id="196" depart="61.16" from="A2A3" to="D1D0" type="passenger"/>
    <trip id="197" depart="61.17" from="top0A4.80.00" to="B4B3.80.00" type="passenger"/>
    <trip id="198" depart="61.21" from="B1C1" to="C4D4.80.00" type="passenger"/>
    <trip id="199" depart="61.35" from="E1E0.80.00" to="B4B3.80.00" type="passenger"/>
    <trip id="200" depart="61.52" from="C4D4" to="D4top3" type="passenger"/>
    <trip id="201" depart="61.59" from="B3B4.80.00" to="A3B3" type="passenger"/>
    <trip id="202" depart="61.61" from="B3C3.80.00" to="C0C1" type="passenger"/>
    <trip id="203" depart="61.66" from="A3B3.80.00" to="C0B0.80.00" type="passenger"/>
    <trip id="204" depart="61.80" from="D2D1" to="C1C2" type="passenger"/>
    <trip id="205" depart="63.06" from="bottom3D0" to="C4D4" type="passenger"/>
    <trip id="206" depart="64.14" from="B0A0" to="D3D2.80.00" type="passenger"/>
    <trip id="207" depart="64.27" from="B3A3" to="B4top1" type="passenger"/>
    <trip id="208" depart="64.44" from="A2B2" to="B2B3" type="passenger"/>
    <trip id="209" depart="64.70" from="bottom3D0.80.00" to="D4C4" type="passenger"/>
    <trip id="210" depart="64.77" from="A2A3.80.00" to="B0C0" type="passenger"/>
    <trip id="211" depart="64.88" from="D0C0" to="A1B1" type="passenger"/>
    <trip id="212" depart="64.90" from="D3D4.80.00" to="A4B4" type="passenger"/>
    <trip id="213" depart="64.97" from="B0C0" to="C2C1" type="passenger"/>
    <trip id="214" depart="65.52" from="top4E4" to="A2A3" type="passenger"/>
    <trip id="215" depart="66.02" from="C4B4.80.00" to="A3A4.80.00" type="passenger"/>
    <trip id="216" depart="66.42" from="C3C4" to="E0bottom4" type="passenger"/>
    <trip id="217" depart="67.16" from="left4A4.80.00" to="B2B1" type="passenger"/>
    <trip id="218" depart="67.32" from="E1E0" to="C3C2" type="passenger"/>
    <trip id="219" depart="67.73" from="D2C2.80.00" to="A4B4" type="passenger"/>
    <trip id="220" depart="67.84" from="B3B4" to="E1D1" type="passenger"/>
    <trip id="221" depart="68.04" from="D3E3.80.00" to="A4A3" type="passenger"/>
    <trip id="222" depart="68.26" from="A3A2.80.00" to="A3A2" type="passenger"/>
    <trip id="223" depart="68.42" from="E3D3.80.00" to="D0bottom3" type="passenger"/>
    <trip id="224" depart="68.54" from="B4C4" to="B2A2.80.00" type="passenger"/>
    <trip id="225" depart="68.55" from="A1B1" to="E2E1.80.00" type="passenger"/>
    <trip id="226" depart="68.61" from="A1B1" to="A4left4" type="passenger"/>
    <trip id="227" depart="68.90" from="C3C2" to="C2C3.80.00" type="passenger"/>
    <trip id="228" depart="69.10" from="A3A4.80.00" to="C4D4.80.00" type="passenger"/>
    <trip id="229" depart="69.41" from="E3D3" to="D4D3.80.00" type="passenger"/>
    <trip id="230" depart="69.89" from="D2D3.80.00" to="D0bottom3" type="passenger"/>
    <trip id="231" depart="70.11" from="left4A4" to="A0B0.80.00" type="passenger"/>
    <trip id="232" depart="70.78" from="D3D2.80.00" to="top3D4.80.00" type="passenger"/>
    <trip id="233" depart="70.91" from="D0E0.80.00" to="E2E1" type="passenger"/>
    <trip id="234" depart="71.04" from="B2A2" to="E3E4.80.00" type="passenger"/>
    <trip id="235" depart="71.29" from="D2C2.80.00" to="C3C2" type="passenger"/>
    <trip id="236" depart="71.50" from="C2B2.80.00" to="E3D3" type="passenger"/>
    <trip id="237" depart="71.62" from="D4C4.80.00" to="E4E3" type="passenger"/>
    <trip id="238" depart="71.86" from="E0E1" to="A1A0.80.00" type="passenger"/>
    <trip id="239" depart="71.90" from="C1C2" to="C3B3.80.00" type="passenger"/>
    <trip id="240" depart="72.50" from="A2A3" to="D1C1" type="passenger"/>
    <trip id="241" depart="73.34" from="right0E0.80.00" to="D2D3" type="passenger"/>
    <trip id="242" depart="73.63" from="D0D1" to="C2C1" type="passenger"/>
    <trip id="243" depart="74.22" from="B2A2.80.00" to="A4B4" type="passenger"/>
    <trip id="244" depart="74.36" from="B4B3.80.00" to="E1E2" type="passenger"/>
    <trip id="245" depart="74.37" from="B0C0.80.00" to="C1D1.80.00" type="passenger"/>
    <trip id="246" depart="74.74" from="left2A2.80.00" to="D4E4.80.00" type="passenger"/>
    <trip id="247" depart="75.01" from="C4C3.80.00" to="D0D1" type="passenger"/>
    <trip id="248" depart="75.43" from="E1E0.80.00" to="A4left4" type="passenger"/>
    <trip id="249" depart="75.53" from="C4C3.80.00" to="C3D3.80.00" type="passenger"/>
    <trip id="250" depart="76.00" from="left0A0.80.00" to="E2E1.80.00" type="passenger"/>
    <trip id="251" depart="76.38" from="E2D2.80.00" to="E2E1.80.00" type="passenger"/>
    <trip id="252" depart="76.63" from="A4A3" to="B1A1.80.00" type="passenger"/>
    <trip id="253" depart="77.28" from="E2D2.80.00" to="E2E3.80.00" type="passenger"/>
    <trip id="254" depart="77.46" from="C3D3" to="A4A3" type="passenger"/>
    <trip id="255" depart="77.65" from="left3A3" to="B1B2.80.00" type="passenger"/>
    <trip id="256" depart="77.75" from="B3A3" to="C4C3.80.00" type="passenger"/>
    <trip id="257" depart="78.27" from="bottom1B0.80.00" to="B2C2" type="passenger"/>
    <trip id="258" depart="78.30" from="top4E4" to="D1D2" type="passenger"/>
    <trip id="259" depart="78.74" from="C0B0.80.00" to="right3E3.80.00" type="passenger"/>
    <trip id="260" depart="78.97" from="A0B0" to="D0C0" type="passenger"/>
    <trip id="261" depart="79.32" from="C0B0" to="D1D2.80.00" type="passenger"/>
    <trip id="262" depart="79.81" from="B3B4.80.00" to="A0left0" type="passenger"/>
    <trip id="263" depart="80.37" from="B3B4" to="C4B4.80.00" type="passenger"/>
    <trip id="264" depart="80.74" from="E3E2" to="D2C2" type="passenger"/>
    <trip id="265" depart="81.90" from="left1A1" to="C1C2" type="passenger"/>
    <trip id="266" depart="82.01" from="C3D3.80.00" to="D0C0.80.00" type="passenger"/>
    <trip id="267" depart="82.06" from="top4E4.80.00" to="C2C3" type="passenger"/>
    <trip id="268" depart="82.63" from="D2E2" to="top0A4.80.00" type="passenger"/>
    <trip id="269" depart="82.80" from="D2C2.80.00" to="E2E3.80.00" type="passenger"/>
    <trip id="270" depart="83.47" from="D4E4.80.00" to="C1C0" type="passenger"/>
    <trip id="271" depart="84.56" from="A3A4" to="D3E3.80.00" type="passenger"/>
    <trip id="272" depart="84.67" from="top3D4" to="A2A3" type="passenger"/>
    <trip id="273" depart="84.74" from="A2A1.80.00" to="D1C1" type="passenger"/>
    <trip id="274" depart="84.99" from="C1B1.80.00" to="D4E4" type="passenger"/>
    <trip id="275" depart="84.99" from="top0A4.80.00" to="A0bottom0" type="passenger"/>
    <trip id="276" depart="85.64" from="D1C1" to="right0E0.80.00" type="passenger"/>
    <trip id="277" depart="85.95" from="left1A1.80.00" to="E0bottom4" type="passenger"/>
    <trip id="278" depart="86.18" from="A2A3.80.00" to="D0bottom3" type="passenger"/>
    <trip id="279" depart="86.22" from="left4A4.80.00" to="E3E2.80.00" type="passenger"/>
    <trip id="280" depart="87.58" from="B1B0" to="A1A0.80.00" type="passenger"/>
    <trip id="281" depart="87.62" from="right2E2" to="E4E3" type="passenger"/>
    <trip id="282" depart="88.19" from="C0D0.80.00" to="B3B4.80.00" type="passenger"/>
    <trip id="283" depart="88.54" from="B1B2" to="C2C3.80.00" type="passenger"/>
    <trip id="284" depart="89.02" from="B2A2" to="C4B4.80.00" type="passenger"/>
    <trip id="285" depart="89.11" from="A0A1.80.00" to="B3A3" type="passenger"/>
    <trip id="286" depart="89.17" from="C1C2" to="E1E0.80.00" type="passenger"/>
    <trip id="287" depart="90.32" from="C0B0.80.00" to="A2A3" type="passenger"/>
    <trip id="288" depart="90.46" from="D1E1" to="B2C2" type="passenger"/>
    <trip id="289" depart="90.67" from="top4E4" to="D1C1" type="passenger"/>
    <trip id="290" depart="91.27" from="A1A0" to="A3A2" type="passenger"/>
    <trip id="291" depart="91.44" from="A3B3.80.00" to="D0bottom3" type="passenger"/>
    <trip id="292" depart="91.80" from="B2B3.80.00" to="C0B0" type="passenger"/>
    <trip id="293" depart="92.25" from="B1B0.80.00" to="top2C4.80.00" type="passenger"/>
    <trip id="294" depart="92.42" from="C1C2" to="A4left4" type="passenger"/>
    <trip id="295" depart="92.51" from="A3B3" to="B0A0" type="passenger"/>
    <trip id="296" depart="92.82" from="top3D4.80.00" to="B3C3.80.00" type="passenger"/>
    <trip id="297" depart="93.18" from="top3D4.80.00" to="C2D2" type="passenger"/>
    <trip id="298" depart="93.28" from="B4C4" to="D2E2.80.00" type="passenger"/>
    <trip id="299" depart="93.59" from="bottom0A0.80.00" to="D3C3.80.00" type="passenger"/>
    <trip id="300" depart="93.77" from="D4E4" to="C0D0.80.00" type="passenger"/>
    <trip id="301" depart="93.89" from="B4B3" to="B4B3" type="passenger"/>
    <trip id="302" depart="94.60" from="C0D0" to="B1B2" type="passenger"/>
    <trip id="303" depart="95.53" from="A1A0.80.00" to="C4B4.80.00" type="passenger"/>
    <trip id="304" depart="96.05" from="left4A4.80.00" to="C4D4" type="passenger"/>
    <trip id="305" depart="96.25" from="E0E1" to="C1C0" type="passenger"/>
    <trip id="306" depart="96.29" from="A2B2.80.00" to="C2C1.80.00" type="passenger"/>
    <trip id="307" depart="96.50" from="C2C1.80.00" to="D2E2" type="passenger"/>
    <trip id="308" depart="96.74" from="D4E4" to="D4top3" type="passenger"/>
    <trip id="309" depart="97.05" from="B0C0" to="A1A2.80.00" type="passenger"/>
    <trip id="310" depart="97.08" from="E2E3" to="C2B2.80.00" type="passenger"/>
    <trip id="311" depart="97.15" from="D1D2.80.00" to="D3C3" type="passenger"/>
    <trip id="312" depart="97.55" from="B3A3.80.00" to="C1B1.80.00" type="passenger"/>
    <trip id="313" depart="97.56" from="D0E0" to="C0B0" type="passenger"/>
    <trip id="314" depart="97.78" from="B0C0.80.00" to="left2A2.80.00" type="passenger"/>
    <trip id="315" depart="98.45" from="D0E0.80.00" to="B0bottom1" type="passenger"/>
    <trip id="316" depart="98.55" from="right3E3" to="B3A3.80.00" type="passenger"/>
    <trip id="317" depart="98.58" from="A0B0.80.00" to="right0E0.80.00" type="passenger"/>
    <trip id="318" depart="98.78" from="D3D4" to="B2B3" type="passenger"/>
    <trip id="319" depart="98.89" from="C3B3.80.00" to="A2B2.80.00" type="passenger"/>
    <trip id="320" depart="99.47" from="A2A3.80.00" to="D4E4" type="passenger"/>
    <trip id="321" depart="99.50" from="D0E0.80.00" to="C4B4.80.00" type="passenger"/>
    <trip id="322" depart="99.62" from="C0D0.80.00" to="A3A4.80.00" type="passenger"/>
    <trip id="323" depart="99.89" from="B0B1.80.00" to="B3C3.80.00" type="passenger"/>
    <trip id="324" depart="100.28" from="top4E4.80.00" to="C0B0.80.00" type="passenger"/>
    <trip id="325" depart="100.53" from="C1C2.80.00" to="D3C3" type="passenger"/>
    <trip id="326" depart="100.64" from="E3E4.80.00" to="D0D1.80.00" type="passenger"/>
    <trip id="327" depart="100.75" from="B3A3" to="B0C0.80.00" type="passenger"/>
    <trip id="328" depart="100.96" from="A0A1" to="C2B2.80.00" type="passenger"/>
    <trip id="329" depart="101.45" from="E4E3" to="D3E3.80.00" type="passenger"/>
    <trip id="330" depart="101.94" from="C1D1.80.00" to="A4A3" type="passenger"/>
    <trip id="331" depart="101.95" from="D2D3" to="E2right2" type="passenger"/>
    <trip id="332" depart="102.45" from="E3D3.80.00" to="top3D4.80.00" type="passenger"/>
    <trip id="333" depart="102.50" from="D1D0.80.00" to="E0E1.80.00" type="passenger"/>
    <trip id="334" depart="102.73" from="B3B4.80.00" to="D3D4" type="passenger"/>
    <trip id="335" depart="102.80" from="D3D4.80.00" to="C1C2" type="passenger"/>
    <trip id="336" depart="102.94" from="C3D3.80.00" to="D0E0.80.00" type="passenger"/>
    <trip id="337" depart="103.04" from="D3E3" to="B4A4.80.00" type="passenger"/>
    <trip id="338" depart="103.04" from="A4B4.80.00" to="A1A2" type="passenger"/>
    <trip id="339" depart="103.14" from="E0D0.80.00" to="B3B2.80.00" type="passenger"/>
    <trip id="340" depart="103.85" from="E0E1" to="C3C4" type="passenger"/>
    <trip id="341" depart="103.94" from="top3D4.80.00" to="E2E3" type="passenger"/>
    <trip id="342" depart="104.47" from="B3B4" to="top3D4.80.00" type="passenger"/>
    <trip id="343" depart="104.55" from="E1D1.80.00" to="C4C3.80.00" type="passenger"/>
    <trip id="344" depart="104.67" from="B1B2" to="right4E4.80.00" type="passenger"/>
    <trip id="345" depart="104.74" from="left4A4" to="C0bottom2" type="passenger"/>
    <trip id="346" depart="105.47" from="C1C2.80.00" to="D0D1" type="passenger"/>
    <trip id="347" depart="105.81" from="C2B2.80.00" to="C1B1" type="passenger"/>
    <trip id="348" depart="105.82" from="A1A0" to="A4top0" type="passenger"/>
    <trip id="349" depart="106.38" from="A4B4.80.00" to="B0C0.80.00" type="passenger"/>
    <trip id="350" depart="106.41" from="B3A3" to="B2A2" type="passenger"/>
    <trip id="351" depart="106.89" from="right2E2.80.00" to="A0B0.80.00" type="passenger"/>
    <trip id="352" depart="106.94" from="D3D4" to="C3C2.80.00" type="passenger"/>
    <trip id="353" depart="107.24" from="right1E1" to="C2B2.80.00" type="passenger"/>