<?xml version="1.0" encoding="UTF-8"?>

<!-- generated on 2023-05-04 15:20:41 by Eclipse SUMO netgenerate Version 1.17.0
<configuration xmlns:xsi="http://www.w3.org/2001/XMLSchema-instance" xsi:noNamespaceSchemaLocation="http://sumo.dlr.de/xsd/netgenerateConfiguration.xsd">

    <grid_network>
        <grid value="true"/>
        <grid.number value="3"/>
        <grid.length value="150"/>
        <grid.attach-length value="150"/>
    </grid_network>

    <output>
        <output-file value="/home/franky3er/Documents/code/HieraGLight/scenarios/grid/3x3-150m/train/62-scenario/network.net.xml"/>
    </output>

    <processing>
        <turn-lanes value="1"/>
        <turn-lanes.length value="70"/>
    </processing>

    <building_defaults>
        <default.lanenumber value="2"/>
        <default-junction-type value="traffic_light"/>
    </building_defaults>

    <tls_building>
        <tls.discard-simple value="true"/>
    </tls_building>

    <junctions>
        <no-turnarounds value="true"/>
    </junctions>

</configuration>
-->

<net version="1.16" junctionCornerDetail="5" limitTurnSpeed="5.50" xmlns:xsi="http://www.w3.org/2001/XMLSchema-instance" xsi:noNamespaceSchemaLocation="http://sumo.dlr.de/xsd/net_file.xsd">

    <location netOffset="0.00,0.00" convBoundary="0.00,0.00,600.00,600.00" origBoundary="0.00,0.00,600.00,600.00" projParameter="!"/>

    <edge id=":A0_0" function="internal">
        <lane id=":A0_0_0" index="0" speed="6.51" length="9.03" shape="143.60,162.00 143.25,159.55 142.20,157.80 140.45,156.75 138.00,156.40"/>
    </edge>
    <edge id=":A0_1" function="internal">
        <lane id=":A0_1_0" index="0" speed="13.89" length="24.00" shape="143.60,162.00 143.60,138.00"/>
        <lane id=":A0_1_1" index="1" speed="13.89" length="24.00" shape="146.80,162.00 146.80,138.00"/>
    </edge>
    <edge id=":A0_3" function="internal">
        <lane id=":A0_3_0" index="0" speed="9.84" length="6.30" shape="150.00,162.00 150.71,155.74"/>
    </edge>
    <edge id=":A0_16" function="internal">
        <lane id=":A0_16_0" index="0" speed="9.84" length="15.70" shape="150.71,155.74 150.75,155.35 153.00,150.60 156.75,147.75 162.00,146.80"/>
    </edge>
    <edge id=":A0_4" function="internal">
        <lane id=":A0_4_0" index="0" speed="6.51" length="9.03" shape="162.00,156.40 159.55,156.75 157.80,157.80 156.75,159.55 156.40,162.00"/>
    </edge>
    <edge id=":A0_5" function="internal">
        <lane id=":A0_5_0" index="0" speed="13.89" length="24.00" shape="162.00,156.40 138.00,156.40"/>
        <lane id=":A0_5_1" index="1" speed="13.89" length="24.00" shape="162.00,153.20 138.00,153.20"/>
    </edge>
    <edge id=":A0_7" function="internal">
        <lane id=":A0_7_0" index="0" speed="9.84" length="6.30" shape="162.00,150.00 155.74,149.29"/>
    </edge>
    <edge id=":A0_17" function="internal">
        <lane id=":A0_17_0" index="0" speed="9.84" length="15.70" shape="155.74,149.29 155.35,149.25 150.60,147.00 147.75,143.25 146.80,138.00"/>
    </edge>
    <edge id=":A0_8" function="internal">
        <lane id=":A0_8_0" index="0" speed="6.51" length="9.03" shape="156.40,138.00 156.75,140.45 157.80,142.20 159.55,143.25 162.00,143.60"/>
    </edge>
    <edge id=":A0_9" function="internal">
        <lane id=":A0_9_0" index="0" speed="13.89" length="24.00" shape="156.40,138.00 156.40,162.00"/>
        <lane id=":A0_9_1" index="1" speed="13.89" length="24.00" shape="153.20,138.00 153.20,162.00"/>
    </edge>
    <edge id=":A0_11" function="internal">
        <lane id=":A0_11_0" index="0" speed="9.84" length="6.30" shape="150.00,138.00 149.29,144.26"/>
    </edge>
    <edge id=":A0_18" function="internal">
        <lane id=":A0_18_0" index="0" speed="9.84" length="15.70" shape="149.29,144.26 149.25,144.65 147.00,149.40 143.25,152.25 138.00,153.20"/>
    </edge>
    <edge id=":A0_12" function="internal">
        <lane id=":A0_12_0" index="0" speed="6.51" length="9.03" shape="138.00,143.60 140.45,143.25 142.20,142.20 143.25,140.45 143.60,138.00"/>
    </edge>
    <edge id=":A0_13" function="internal">
        <lane id=":A0_13_0" index="0" speed="13.89" length="24.00" shape="138.00,143.60 162.00,143.60"/>
        <lane id=":A0_13_1" index="1" speed="13.89" length="24.00" shape="138.00,146.80 162.00,146.80"/>
    </edge>
    <edge id=":A0_15" function="internal">
        <lane id=":A0_15_0" index="0" speed="9.84" length="6.30" shape="138.00,150.00 144.26,150.71"/>
    </edge>
    <edge id=":A0_19" function="internal">
        <lane id=":A0_19_0" index="0" speed="9.84" length="15.70" shape="144.26,150.71 144.65,150.75 149.40,153.00 152.25,156.75 153.20,162.00"/>
    </edge>
    <edge id=":A0A1.80.00_0" function="internal">
        <lane id=":A0A1.80.00_0_0" index="0" speed="13.89" length="8.27" shape="156.40,226.00 156.40,234.00"/>
        <lane id=":A0A1.80.00_0_1" index="1" speed="13.89" length="8.27" shape="153.20,226.00 153.20,234.00"/>
        <lane id=":A0A1.80.00_0_2" index="2" speed="13.89" length="8.27" shape="153.20,226.00 152.70,228.46 151.60,230.00 150.50,231.54 150.00,234.00"/>
    </edge>
    <edge id=":A0B0.80.00_0" function="internal">
        <lane id=":A0B0.80.00_0_0" index="0" speed="13.89" length="8.27" shape="226.00,143.60 234.00,143.60"/>
        <lane id=":A0B0.80.00_0_1" index="1" speed="13.89" length="8.27" shape="226.00,146.80 234.00,146.80"/>
        <lane id=":A0B0.80.00_0_2" index="2" speed="13.89" length="8.27" shape="226.00,146.80 228.46,147.30 230.00,148.40 231.54,149.50 234.00,150.00"/>
    </edge>
    <edge id=":A1_0" function="internal">
        <lane id=":A1_0_0" index="0" speed="6.51" length="9.03" shape="143.60,312.00 143.25,309.55 142.20,307.80 140.45,306.75 138.00,306.40"/>
    </edge>
    <edge id=":A1_1" function="internal">
        <lane id=":A1_1_0" index="0" speed="13.89" length="24.00" shape="143.60,312.00 143.60,288.00"/>
        <lane id=":A1_1_1" index="1" speed="13.89" length="24.00" shape="146.80,312.00 146.80,288.00"/>
    </edge>
    <edge id=":A1_3" function="internal">
        <lane id=":A1_3_0" index="0" speed="9.84" length="6.30" shape="150.00,312.00 150.71,305.74"/>
    </edge>
    <edge id=":A1_16" function="internal">
        <lane id=":A1_16_0" index="0" speed="9.84" length="15.70" shape="150.71,305.74 150.75,305.35 153.00,300.60 156.75,297.75 162.00,296.80"/>
    </edge>
    <edge id=":A1_4" function="internal">
        <lane id=":A1_4_0" index="0" speed="6.51" length="9.03" shape="162.00,306.40 159.55,306.75 157.80,307.80 156.75,309.55 156.40,312.00"/>
    </edge>
    <edge id=":A1_5" function="internal">
        <lane id=":A1_5_0" index="0" speed="13.89" length="24.00" shape="162.00,306.40 138.00,306.40"/>
        <lane id=":A1_5_1" index="1" speed="13.89" length="24.00" shape="162.00,303.20 138.00,303.20"/>
    </edge>
    <edge id=":A1_7" function="internal">
        <lane id=":A1_7_0" index="0" speed="9.84" length="6.30" shape="162.00,300.00 155.74,299.29"/>
    </edge>
    <edge id=":A1_17" function="internal">
        <lane id=":A1_17_0" index="0" speed="9.84" length="15.70" shape="155.74,299.29 155.35,299.25 150.60,297.00 147.75,293.25 146.80,288.00"/>
    </edge>
    <edge id=":A1_8" function="internal">
        <lane id=":A1_8_0" index="0" speed="6.51" length="9.03" shape="156.40,288.00 156.75,290.45 157.80,292.20 159.55,293.25 162.00,293.60"/>
    </edge>
    <edge id=":A1_9" function="internal">
        <lane id=":A1_9_0" index="0" speed="13.89" length="24.00" shape="156.40,288.00 156.40,312.00"/>
        <lane id=":A1_9_1" index="1" speed="13.89" length="24.00" shape="153.20,288.00 153.20,312.00"/>
    </edge>
    <edge id=":A1_11" function="internal">
        <lane id=":A1_11_0" index="0" speed="9.84" length="6.30" shape="150.00,288.00 149.29,294.26"/>
    </edge>
    <edge id=":A1_18" function="internal">
        <lane id=":A1_18_0" index="0" speed="9.84" length="15.70" shape="149.29,294.26 149.25,294.65 147.00,299.40 143.25,302.25 138.00,303.20"/>
    </edge>
    <edge id=":A1_12" function="internal">
        <lane id=":A1_12_0" index="0" speed="6.51" length="9.03" shape="138.00,293.60 140.45,293.25 142.20,292.20 143.25,290.45 143.60,288.00"/>
    </edge>
    <edge id=":A1_13" function="internal">
        <lane id=":A1_13_0" index="0" speed="13.89" length="24.00" shape="138.00,293.60 162.00,293.60"/>
        <lane id=":A1_13_1" index="1" speed="13.89" length="24.00" shape="138.00,296.80 162.00,296.80"/>
    </edge>
    <edge id=":A1_15" function="internal">
        <lane id=":A1_15_0" index="0" speed="9.84" length="6.30" shape="138.00,300.00 144.26,300.71"/>
    </edge>
    <edge id=":A1_19" function="internal">
        <lane id=":A1_19_0" index="0" speed="9.84" length="15.70" shape="144.26,300.71 144.65,300.75 149.40,303.00 152.25,306.75 153.20,312.00"/>
    </edge>
    <edge id=":A1A0.80.00_0" function="internal">
        <lane id=":A1A0.80.00_0_0" index="0" speed="13.89" length="8.27" shape="143.60,224.00 143.60,216.00"/>
        <lane id=":A1A0.80.00_0_1" index="1" speed="13.89" length="8.27" shape="146.80,224.00 146.80,216.00"/>
        <lane id=":A1A0.80.00_0_2" index="2" speed="13.89" length="8.27" shape="146.80,224.00 147.30,221.54 148.40,220.00 149.50,218.46 150.00,216.00"/>
    </edge>
    <edge id=":A1A2.80.00_0" function="internal">
        <lane id=":A1A2.80.00_0_0" index="0" speed="13.89" length="8.27" shape="156.40,376.00 156.40,384.00"/>
        <lane id=":A1A2.80.00_0_1" index="1" speed="13.89" length="8.27" shape="153.20,376.00 153.20,384.00"/>
        <lane id=":A1A2.80.00_0_2" index="2" speed="13.89" length="8.27" shape="153.20,376.00 152.70,378.46 151.60,380.00 150.50,381.54 150.00,384.00"/>
    </edge>
    <edge id=":A1B1.80.00_0" function="internal">
        <lane id=":A1B1.80.00_0_0" index="0" speed="13.89" length="8.27" shape="226.00,293.60 234.00,293.60"/>
        <lane id=":A1B1.80.00_0_1" index="1" speed="13.89" length="8.27" shape="226.00,296.80 234.00,296.80"/>
        <lane id=":A1B1.80.00_0_2" index="2" speed="13.89" length="8.27" shape="226.00,296.80 228.46,297.30 230.00,298.40 231.54,299.50 234.00,300.00"/>
    </edge>
    <edge id=":A2_0" function="internal">
        <lane id=":A2_0_0" index="0" speed="6.51" length="9.03" shape="143.60,462.00 143.25,459.55 142.20,457.80 140.45,456.75 138.00,456.40"/>
    </edge>
    <edge id=":A2_1" function="internal">
        <lane id=":A2_1_0" index="0" speed="13.89" length="24.00" shape="143.60,462.00 143.60,438.00"/>
        <lane id=":A2_1_1" index="1" speed="13.89" length="24.00" shape="146.80,462.00 146.80,438.00"/>
    </edge>
    <edge id=":A2_3" function="internal">
        <lane id=":A2_3_0" index="0" speed="9.84" length="6.30" shape="150.00,462.00 150.71,455.74"/>
    </edge>
    <edge id=":A2_16" function="internal">
        <lane id=":A2_16_0" index="0" speed="9.84" length="15.70" shape="150.71,455.74 150.75,455.35 153.00,450.60 156.75,447.75 162.00,446.80"/>
    </edge>
    <edge id=":A2_4" function="internal">
        <lane id=":A2_4_0" index="0" speed="6.51" length="9.03" shape="162.00,456.40 159.55,456.75 157.80,457.80 156.75,459.55 156.40,462.00"/>
    </edge>
    <edge id=":A2_5" function="internal">
        <lane id=":A2_5_0" index="0" speed="13.89" length="24.00" shape="162.00,456.40 138.00,456.40"/>
        <lane id=":A2_5_1" index="1" speed="13.89" length="24.00" shape="162.00,453.20 138.00,453.20"/>
    </edge>
    <edge id=":A2_7" function="internal">
        <lane id=":A2_7_0" index="0" speed="9.84" length="6.30" shape="162.00,450.00 155.74,449.29"/>
    </edge>
    <edge id=":A2_17" function="internal">
        <lane id=":A2_17_0" index="0" speed="9.84" length="15.70" shape="155.74,449.29 155.35,449.25 150.60,447.00 147.75,443.25 146.80,438.00"/>
    </edge>
    <edge id=":A2_8" function="internal">
        <lane id=":A2_8_0" index="0" speed="6.51" length="9.03" shape="156.40,438.00 156.75,440.45 157.80,442.20 159.55,443.25 162.00,443.60"/>
    </edge>
    <edge id=":A2_9" function="internal">
        <lane id=":A2_9_0" index="0" speed="13.89" length="24.00" shape="156.40,438.00 156.40,462.00"/>
        <lane id=":A2_9_1" index="1" speed="13.89" length="24.00" shape="153.20,438.00 153.20,462.00"/>
    </edge>
    <edge id=":A2_11" function="internal">
        <lane id=":A2_11_0" index="0" speed="9.84" length="6.30" shape="150.00,438.00 149.29,444.26"/>
    </edge>
    <edge id=":A2_18" function="internal">
        <lane id=":A2_18_0" index="0" speed="9.84" length="15.70" shape="149.29,444.26 149.25,444.65 147.00,449.40 143.25,452.25 138.00,453.20"/>
    </edge>
    <edge id=":A2_12" function="internal">
        <lane id=":A2_12_0" index="0" speed="6.51" length="9.03" shape="138.00,443.60 140.45,443.25 142.20,442.20 143.25,440.45 143.60,438.00"/>
    </edge>
    <edge id=":A2_13" function="internal">
        <lane id=":A2_13_0" index="0" speed="13.89" length="24.00" shape="138.00,443.60 162.00,443.60"/>
        <lane id=":A2_13_1" index="1" speed="13.89" length="24.00" shape="138.00,446.80 162.00,446.80"/>
    </edge>
    <edge id=":A2_15" function="internal">
        <lane id=":A2_15_0" index="0" speed="9.84" length="6.30" shape="138.00,450.00 144.26,450.71"/>
    </edge>
    <edge id=":A2_19" function="internal">
        <lane id=":A2_19_0" index="0" speed="9.84" length="15.70" shape="144.26,450.71 144.65,450.75 149.40,453.00 152.25,456.75 153.20,462.00"/>
    </edge>
    <edge id=":A2A1.80.00_0" function="internal">
        <lane id=":A2A1.80.00_0_0" index="0" speed="13.89" length="8.27" shape="143.60,374.00 143.60,366.00"/>
        <lane id=":A2A1.80.00_0_1" index="1" speed="13.89" length="8.27" shape="146.80,374.00 146.80,366.00"/>
        <lane id=":A2A1.80.00_0_2" index="2" speed="13.89" length="8.27" shape="146.80,374.00 147.30,371.54 148.40,370.00 149.50,368.46 150.00,366.00"/>
    </edge>
    <edge id=":A2B2.80.00_0" function="internal">
        <lane id=":A2B2.80.00_0_0" index="0" speed="13.89" length="8.27" shape="226.00,443.60 234.00,443.60"/>
        <lane id=":A2B2.80.00_0_1" index="1" speed="13.89" length="8.27" shape="226.00,446.80 234.00,446.80"/>
        <lane id=":A2B2.80.00_0_2" index="2" speed="13.89" length="8.27" shape="226.00,446.80 228.46,447.30 230.00,448.40 231.54,449.50 234.00,450.00"/>
    </edge>
    <edge id=":B0_0" function="internal">
        <lane id=":B0_0_0" index="0" speed="6.51" length="9.03" shape="293.60,162.00 293.25,159.55 292.20,157.80 290.45,156.75 288.00,156.40"/>
    </edge>
    <edge id=":B0_1" function="internal">
        <lane id=":B0_1_0" index="0" speed="13.89" length="24.00" shape="293.60,162.00 293.60,138.00"/>
        <lane id=":B0_1_1" index="1" speed="13.89" length="24.00" shape="296.80,162.00 296.80,138.00"/>
    </edge>
    <edge id=":B0_3" function="internal">
        <lane id=":B0_3_0" index="0" speed="9.84" length="6.30" shape="300.00,162.00 300.71,155.74"/>
    </edge>
    <edge id=":B0_16" function="internal">
        <lane id=":B0_16_0" index="0" speed="9.84" length="15.70" shape="300.71,155.74 300.75,155.35 303.00,150.60 306.75,147.75 312.00,146.80"/>
    </edge>
    <edge id=":B0_4" function="internal">
        <lane id=":B0_4_0" index="0" speed="6.51" length="9.03" shape="312.00,156.40 309.55,156.75 307.80,157.80 306.75,159.55 306.40,162.00"/>
    </edge>
    <edge id=":B0_5" function="internal">
        <lane id=":B0_5_0" index="0" speed="13.89" length="24.00" shape="312.00,156.40 288.00,156.40"/>
        <lane id=":B0_5_1" index="1" speed="13.89" length="24.00" shape="312.00,153.20 288.00,153.20"/>
    </edge>
    <edge id=":B0_7" function="internal">
        <lane id=":B0_7_0" index="0" speed="9.84" length="6.30" shape="312.00,150.00 305.74,149.29"/>
    </edge>
    <edge id=":B0_17" function="internal">
        <lane id=":B0_17_0" index="0" speed="9.84" length="15.70" shape="305.74,149.29 305.35,149.25 300.60,147.00 297.75,143.25 296.80,138.00"/>
    </edge>
    <edge id=":B0_8" function="internal">
        <lane id=":B0_8_0" index="0" speed="6.51" length="9.03" shape="306.40,138.00 306.75,140.45 307.80,142.20 309.55,143.25 312.00,143.60"/>
    </edge>
    <edge id=":B0_9" function="internal">
        <lane id=":B0_9_0" index="0" speed="13.89" length="24.00" shape="306.40,138.00 306.40,162.00"/>
        <lane id=":B0_9_1" index="1" speed="13.89" length="24.00" shape="303.20,138.00 303.20,162.00"/>
    </edge>
    <edge id=":B0_11" function="internal">
        <lane id=":B0_11_0" index="0" speed="9.84" length="6.30" shape="300.00,138.00 299.29,144.26"/>
    </edge>
    <edge id=":B0_18" function="internal">
        <lane id=":B0_18_0" index="0" speed="9.84" length="15.70" shape="299.29,144.26 299.25,144.65 297.00,149.40 293.25,152.25 288.00,153.20"/>
    </edge>
    <edge id=":B0_12" function="internal">
        <lane id=":B0_12_0" index="0" speed="6.51" length="9.03" shape="288.00,143.60 290.45,143.25 292.20,142.20 293.25,140.45 293.60,138.00"/>
    </edge>
    <edge id=":B0_13" function="internal">
        <lane id=":B0_13_0" index="0" speed="13.89" length="24.00" shape="288.00,143.60 312.00,143.60"/>
        <lane id=":B0_13_1" index="1" speed="13.89" length="24.00" shape="288.00,146.80 312.00,146.80"/>
    </edge>
    <edge id=":B0_15" function="internal">
        <lane id=":B0_15_0" index="0" speed="9.84" length="6.30" shape="288.00,150.00 294.26,150.71"/>
    </edge>
    <edge id=":B0_19" function="internal">
        <lane id=":B0_19_0" index="0" speed="9.84" length="15.70" shape="294.26,150.71 294.65,150.75 299.40,153.00 302.25,156.75 303.20,162.00"/>
    </edge>
    <edge id=":B0A0.80.00_0" function="internal">
        <lane id=":B0A0.80.00_0_0" index="0" speed="13.89" length="8.27" shape="224.00,156.40 216.00,156.40"/>
        <lane id=":B0A0.80.00_0_1" index="1" speed="13.89" length="8.27" shape="224.00,153.20 216.00,153.20"/>
        <lane id=":B0A0.80.00_0_2" index="2" speed="13.89" length="8.27" shape="224.00,153.20 221.54,152.70 220.00,151.60 218.46,150.50 216.00,150.00"/>
    </edge>
    <edge id=":B0B1.80.00_0" function="internal">
        <lane id=":B0B1.80.00_0_0" index="0" speed="13.89" length="8.27" shape="306.40,226.00 306.40,234.00"/>
        <lane id=":B0B1.80.00_0_1" index="1" speed="13.89" length="8.27" shape="303.20,226.00 303.20,234.00"/>
        <lane id=":B0B1.80.00_0_2" index="2" speed="13.89" length="8.27" shape="303.20,226.00 302.70,228.46 301.60,230.00 300.50,231.54 300.00,234.00"/>
    </edge>
    <edge id=":B0C0.80.00_0" function="internal">
        <lane id=":B0C0.80.00_0_0" index="0" speed="13.89" length="8.27" shape="376.00,143.60 384.00,143.60"/>
        <lane id=":B0C0.80.00_0_1" index="1" speed="13.89" length="8.27" shape="376.00,146.80 384.00,146.80"/>
        <lane id=":B0C0.80.00_0_2" index="2" speed="13.89" length="8.27" shape="376.00,146.80 378.46,147.30 380.00,148.40 381.54,149.50 384.00,150.00"/>
    </edge>
    <edge id=":B1_0" function="internal">
        <lane id=":B1_0_0" index="0" speed="6.51" length="9.03" shape="293.60,312.00 293.25,309.55 292.20,307.80 290.45,306.75 288.00,306.40"/>
    </edge>
    <edge id=":B1_1" function="internal">
        <lane id=":B1_1_0" index="0" speed="13.89" length="24.00" shape="293.60,312.00 293.60,288.00"/>
        <lane id=":B1_1_1" index="1" speed="13.89" length="24.00" shape="296.80,312.00 296.80,288.00"/>
    </edge>
    <edge id=":B1_3" function="internal">
        <lane id=":B1_3_0" index="0" speed="9.84" length="6.30" shape="300.00,312.00 300.71,305.74"/>
    </edge>
    <edge id=":B1_16" function="internal">
        <lane id=":B1_16_0" index="0" speed="9.84" length="15.70" shape="300.71,305.74 300.75,305.35 303.00,300.60 306.75,297.75 312.00,296.80"/>
    </edge>
    <edge id=":B1_4" function="internal">
        <lane id=":B1_4_0" index="0" speed="6.51" length="9.03" shape="312.00,306.40 309.55,306.75 307.80,307.80 306.75,309.55 306.40,312.00"/>
    </edge>
    <edge id=":B1_5" function="internal">
        <lane id=":B1_5_0" index="0" speed="13.89" length="24.00" shape="312.00,306.40 288.00,306.40"/>
        <lane id=":B1_5_1" index="1" speed="13.89" length="24.00" shape="312.00,303.20 288.00,303.20"/>
    </edge>
    <edge id=":B1_7" function="internal">
        <lane id=":B1_7_0" index="0" speed="9.84" length="6.30" shape="312.00,300.00 305.74,299.29"/>
    </edge>
    <edge id=":B1_17" function="internal">
        <lane id=":B1_17_0" index="0" speed="9.84" length="15.70" shape="305.74,299.29 305.35,299.25 300.60,297.00 297.75,293.25 296.80,288.00"/>
    </edge>
    <edge id=":B1_8" function="internal">
        <lane id=":B1_8_0" index="0" speed="6.51" length="9.03" shape="306.40,288.00 306.75,290.45 307.80,292.20 309.55,293.25 312.00,293.60"/>
    </edge>
    <edge id=":B1_9" function="internal">
        <lane id=":B1_9_0" index="0" speed="13.89" length="24.00" shape="306.40,288.00 306.40,312.00"/>
        <lane id=":B1_9_1" index="1" speed="13.89" length="24.00" shape="303.20,288.00 303.20,312.00"/>
    </edge>
    <edge id=":B1_11" function="internal">
        <lane id=":B1_11_0" index="0" speed="9.84" length="6.30" shape="300.00,288.00 299.29,294.26"/>
    </edge>
    <edge id=":B1_18" function="internal">
        <lane id=":B1_18_0" index="0" speed="9.84" length="15.70" shape="299.29,294.26 299.25,294.65 297.00,299.40 293.25,302.25 288.00,303.20"/>
    </edge>
    <edge id=":B1_12" function="internal">
        <lane id=":B1_12_0" index="0" speed="6.51" length="9.03" shape="288.00,293.60 290.45,293.25 292.20,292.20 293.25,290.45 293.60,288.00"/>
    </edge>
    <edge id=":B1_13" function="internal">
        <lane id=":B1_13_0" index="0" speed="13.89" length="24.00" shape="288.00,293.60 312.00,293.60"/>
        <lane id=":B1_13_1" index="1" speed="13.89" length="24.00" shape="288.00,296.80 312.00,296.80"/>
    </edge>
    <edge id=":B1_15" function="internal">
        <lane id=":B1_15_0" index="0" speed="9.84" length="6.30" shape="288.00,300.00 294.26,300.71"/>
    </edge>
    <edge id=":B1_19" function="internal">
        <lane id=":B1_19_0" index="0" speed="9.84" length="15.70" shape="294.26,300.71 294.65,300.75 299.40,303.00 302.25,306.75 303.20,312.00"/>
    </edge>
    <edge id=":B1A1.80.00_0" function="internal">
        <lane id=":B1A1.80.00_0_0" index="0" speed="13.89" length="8.27" shape="224.00,306.40 216.00,306.40"/>
        <lane id=":B1A1.80.00_0_1" index="1" speed="13.89" length="8.27" shape="224.00,303.20 216.00,303.20"/>
        <lane id=":B1A1.80.00_0_2" index="2" speed="13.89" length="8.27" shape="224.00,303.20 221.54,302.70 220.00,301.60 218.46,300.50 216.00,300.00"/>
    </edge>
    <edge id=":B1B0.80.00_0" function="internal">
        <lane id=":B1B0.80.00_0_0" index="0" speed="13.89" length="8.27" shape="293.60,224.00 293.60,216.00"/>
        <lane id=":B1B0.80.00_0_1" index="1" speed="13.89" length="8.27" shape="296.80,224.00 296.80,216.00"/>
        <lane id=":B1B0.80.00_0_2" index="2" speed="13.89" length="8.27" shape="296.80,224.00 297.30,221.54 298.40,220.00 299.50,218.46 300.00,216.00"/>
    </edge>
    <edge id=":B1B2.80.00_0" function="internal">
        <lane id=":B1B2.80.00_0_0" index="0" speed="13.89" length="8.27" shape="306.40,376.00 306.40,384.00"/>
        <lane id=":B1B2.80.00_0_1" index="1" speed="13.89" length="8.27" shape="303.20,376.00 303.20,384.00"/>
        <lane id=":B1B2.80.00_0_2" index="2" speed="13.89" length="8.27" shape="303.20,376.00 302.70,378.46 301.60,380.00 300.50,381.54 300.00,384.00"/>
    </edge>
    <edge id=":B1C1.80.00_0" function="internal">
        <lane id=":B1C1.80.00_0_0" index="0" speed="13.89" length="8.27" shape="376.00,293.60 384.00,293.60"/>
        <lane id=":B1C1.80.00_0_1" index="1" speed="13.89" length="8.27" shape="376.00,296.80 384.00,296.80"/>
        <lane id=":B1C1.80.00_0_2" index="2" speed="13.89" length="8.27" shape="376.00,296.80 378.46,297.30 380.00,298.40 381.54,299.50 384.00,300.00"/>
    </edge>
    <edge id=":B2_0" function="internal">
        <lane id=":B2_0_0" index="0" speed="6.51" length="9.03" shape="293.60,462.00 293.25,459.55 292.20,457.80 290.45,456.75 288.00,456.40"/>
    </edge>
    <edge id=":B2_1" function="internal">
        <lane id=":B2_1_0" index="0" speed="13.89" length="24.00" shape="293.60,462.00 293.60,438.00"/>
        <lane id=":B2_1_1" index="1" speed="13.89" length="24.00" shape="296.80,462.00 296.80,438.00"/>
    </edge>
    <edge id=":B2_3" function="internal">
        <lane id=":B2_3_0" index="0" speed="9.84" length="6.30" shape="300.00,462.00 300.71,455.74"/>
    </edge>
    <edge id=":B2_16" function="internal">
        <lane id=":B2_16_0" index="0" speed="9.84" length="15.70" shape="300.71,455.74 300.75,455.35 303.00,450.60 306.75,447.75 312.00,446.80"/>
    </edge>
    <edge id=":B2_4" function="internal">
        <lane id=":B2_4_0" index="0" speed="6.51" length="9.03" shape="312.00,456.40 309.55,456.75 307.80,457.80 306.75,459.55 306.40,462.00"/>
    </edge>
    <edge id=":B2_5" function="internal">
        <lane id=":B2_5_0" index="0" speed="13.89" length="24.00" shape="312.00,456.40 288.00,456.40"/>
        <lane id=":B2_5_1" index="1" speed="13.89" length="24.00" shape="312.00,453.20 288.00,453.20"/>
    </edge>
    <edge id=":B2_7" function="internal">
        <lane id=":B2_7_0" index="0" speed="9.84" length="6.30" shape="312.00,450.00 305.74,449.29"/>
    </edge>
    <edge id=":B2_17" function="internal">
        <lane id=":B2_17_0" index="0" speed="9.84" length="15.70" shape="305.74,449.29 305.35,449.25 300.60,447.00 297.75,443.25 296.80,438.00"/>
    </edge>
    <edge id=":B2_8" function="internal">
        <lane id=":B2_8_0" index="0" speed="6.51" length="9.03" shape="306.40,438.00 306.75,440.45 307.80,442.20 309.55,443.25 312.00,443.60"/>
    </edge>
    <edge id=":B2_9" function="internal">
        <lane id=":B2_9_0" index="0" speed="13.89" length="24.00" shape="306.40,438.00 306.40,462.00"/>
        <lane id=":B2_9_1" index="1" speed="13.89" length="24.00" shape="303.20,438.00 303.20,462.00"/>
    </edge>
    <edge id=":B2_11" function="internal">
        <lane id=":B2_11_0" index="0" speed="9.84" length="6.30" shape="300.00,438.00 299.29,444.26"/>
    </edge>
    <edge id=":B2_18" function="internal">
        <lane id=":B2_18_0" index="0" speed="9.84" length="15.70" shape="299.29,444.26 299.25,444.65 297.00,449.40 293.25,452.25 288.00,453.20"/>
    </edge>
    <edge id=":B2_12" function="internal">
        <lane id=":B2_12_0" index="0" speed="6.51" length="9.03" shape="288.00,443.60 290.45,443.25 292.20,442.20 293.25,440.45 293.60,438.00"/>
    </edge>
    <edge id=":B2_13" function="internal">
        <lane id=":B2_13_0" index="0" speed="13.89" length="24.00" shape="288.00,443.60 312.00,443.60"/>
        <lane id=":B2_13_1" index="1" speed="13.89" length="24.00" shape="288.00,446.80 312.00,446.80"/>
    </edge>
    <edge id=":B2_15" function="internal">
        <lane id=":B2_15_0" index="0" speed="9.84" length="6.30" shape="288.00,450.00 294.26,450.71"/>
    </edge>
    <edge id=":B2_19" function="internal">
        <lane id=":B2_19_0" index="0" speed="9.84" length="15.70" shape="294.26,450.71 294.65,450.75 299.40,453.00 302.25,456.75 303.20,462.00"/>
    </edge>
    <edge id=":B2A2.80.00_0" function="internal">
        <lane id=":B2A2.80.00_0_0" index="0" speed="13.89" length="8.27" shape="224.00,456.40 216.00,456.40"/>
        <lane id=":B2A2.80.00_0_1" index="1" speed="13.89" length="8.27" shape="224.00,453.20 216.00,453.20"/>
        <lane id=":B2A2.80.00_0_2" index="2" speed="13.89" length="8.27" shape="224.00,453.20 221.54,452.70 220.00,451.60 218.46,450.50 216.00,450.00"/>
    </edge>
    <edge id=":B2B1.80.00_0" function="internal">
        <lane id=":B2B1.80.00_0_0" index="0" speed="13.89" length="8.27" shape="293.60,374.00 293.60,366.00"/>
        <lane id=":B2B1.80.00_0_1" index="1" speed="13.89" length="8.27" shape="296.80,374.00 296.80,366.00"/>
        <lane id=":B2B1.80.00_0_2" index="2" speed="13.89" length="8.27" shape="296.80,374.00 297.30,371.54 298.40,370.00 299.50,368.46 300.00,366.00"/>
    </edge>
    <edge id=":B2C2.80.00_0" function="internal">
        <lane id=":B2C2.80.00_0_0" index="0" speed="13.89" length="8.27" shape="376.00,443.60 384.00,443.60"/>
        <lane id=":B2C2.80.00_0_1" index="1" speed="13.89" length="8.27" shape="376.00,446.80 384.00,446.80"/>
        <lane id=":B2C2.80.00_0_2" index="2" speed="13.89" length="8.27" shape="376.00,446.80 378.46,447.30 380.00,448.40 381.54,449.50 384.00,450.00"/>
    </edge>
    <edge id=":C0_0" function="internal">
        <lane id=":C0_0_0" index="0" speed="6.51" length="9.03" shape="443.60,162.00 443.25,159.55 442.20,157.80 440.45,156.75 438.00,156.40"/>
    </edge>
    <edge id=":C0_1" function="internal">
        <lane id=":C0_1_0" index="0" speed="13.89" length="24.00" shape="443.60,162.00 443.60,138.00"/>
        <lane id=":C0_1_1" index="1" speed="13.89" length="24.00" shape="446.80,162.00 446.80,138.00"/>
    </edge>
    <edge id=":C0_3" function="internal">
        <lane id=":C0_3_0" index="0" speed="9.84" length="6.30" shape="450.00,162.00 450.71,155.74"/>
    </edge>
    <edge id=":C0_16" function="internal">
        <lane id=":C0_16_0" index="0" speed="9.84" length="15.70" shape="450.71,155.74 450.75,155.35 453.00,150.60 456.75,147.75 462.00,146.80"/>
    </edge>
    <edge id=":C0_4" function="internal">
        <lane id=":C0_4_0" index="0" speed="6.51" length="9.03" shape="462.00,156.40 459.55,156.75 457.80,157.80 456.75,159.55 456.40,162.00"/>
    </edge>
    <edge id=":C0_5" function="internal">
        <lane id=":C0_5_0" index="0" speed="13.89" length="24.00" shape="462.00,156.40 438.00,156.40"/>
        <lane id=":C0_5_1" index="1" speed="13.89" length="24.00" shape="462.00,153.20 438.00,153.20"/>
    </edge>
    <edge id=":C0_7" function="internal">
        <lane id=":C0_7_0" index="0" speed="9.84" length="6.30" shape="462.00,150.00 455.74,149.29"/>
    </edge>
    <edge id=":C0_17" function="internal">