<?xml version="1.0" encoding="UTF-8"?>

<!-- generated on 2023-04-26 16:57:00.737569 by randomTrips.py UNKNOWN
<configuration>
    <begin value="0"/>
    <end value="900"/>
    <insertion-rate value="8000.0"/>
    <net-file value="/home/franky3er/Documents/code/HieraGLight/scenarios/grid/1x1-500m/train/65-scenario/network.net.xml"/>
    <random value="True"/>
    <random-depart value="True"/>
    <route-file value="/home/franky3er/Documents/code/HieraGLight/scenarios/grid/1x1-500m/train/65-scenario/routes.rou.xml"/>
    <seed value="65"/>
    <output-trip-file value="/home/franky3er/Documents/code/HieraGLight/scenarios/grid/1x1-500m/train/65-scenario/trips.trips.xml"/>
    <vehicle-class value="passenger"/>
</configuration>
-->

<!-- generated on 2023-04-26 16:57:00 by Eclipse SUMO duarouter Version 1.16.0
<configuration xmlns:xsi="http://www.w3.org/2001/XMLSchema-instance" xsi:noNamespaceSchemaLocation="http://sumo.dlr.de/xsd/duarouterConfiguration.xsd">

    <input>
        <net-file value="/home/franky3er/Documents/code/HieraGLight/scenarios/grid/1x1-500m/train/65-scenario/network.net.xml"/>
        <route-files value="/home/franky3er/Documents/code/HieraGLight/scenarios/grid/1x1-500m/train/65-scenario/trips.trips.xml"/>
    </input>

    <output>
        <output-file value="/home/franky3er/Documents/code/HieraGLight/scenarios/grid/1x1-500m/train/65-scenario/routes.rou.xml"/>
        <alternatives-output value="NUL"/>
    </output>

    <time>
        <begin value="0"/>
        <end value="900"/>
    </time>

    <report>
        <no-warnings value="true"/>
        <ignore-errors value="true"/>
        <no-step-log value="true"/>
    </report>

</configuration>
-->

<routes xmlns:xsi="http://www.w3.org/2001/XMLSchema-instance" xsi:noNamespaceSchemaLocation="http://sumo.dlr.de/xsd/routes_file.xsd">
    <vType id="passenger" vClass="passenger"/>
    <vehicle id="5" type="passenger" depart="3.30">
        <route edges="bottom0A0.250.00"/>
    </vehicle>
    <vehicle id="6" type="passenger" depart="3.50">
        <route edges="left0A0.250.00 A0bottom0"/>
    </vehicle>
    <vehicle id="7" type="passenger" depart="3.60">
        <route edges="top0A0.250.00 A0left0"/>
    </vehicle>
    <vehicle id="11" type="passenger" depart="4.80">
        <route edges="right0A0.250.00 A0bottom0"/>
    </vehicle>
    <vehicle id="14" type="passenger" depart="6.05">
        <route edges="bottom0A0 bottom0A0.250.00 A0right0"/>
    </vehicle>
    <vehicle id="15" type="passenger" depart="6.25">
        <route edges="bottom0A0.250.00 A0left0"/>
    </vehicle>
    <vehicle id="18" type="passenger" depart="7.60">
        <route edges="left0A0.250.00"/>
    </vehicle>
    <vehicle id="19" type="passenger" depart="8.00">
        <route edges="top0A0 top0A0.250.00 A0left0"/>
    </vehicle>
    <vehicle id="20" type="passenger" depart="8.70">
        <route edges="bottom0A0.250.00"/>
    </vehicle>
    <vehicle id="21" type="passenger" depart="8.85">
        <route edges="top0A0.250.00"/>
    </vehicle>
    <vehicle id="26" type="passenger" depart="11.05">
        <route edges="bottom0A0 bottom0A0.250.00 A0top0"/>
    </vehicle>
    <vehicle id="27" type="passenger" depart="11.35">
        <route edges="right0A0 right0A0.250.00 A0bottom0"/>
    </vehicle>
    <vehicle id="29" type="passenger" depart="12.20">
        <route edges="top0A0 top0A0.250.00 A0right0"/>
    </vehicle>
    <vehicle id="35" type="passenger" depart="14.05">
        <route edges="bottom0A0 bottom0A0.250.00 A0right0"/>
    </vehicle>
    <vehicle id="36" type="passenger" depart="14.40">
        <route edges="bottom0A0.250.00"/>
    </vehicle>
    <vehicle id="38" type="passenger" depart="16.05">
        <route edges="right0A0.250.00 A0left0"/>
    </vehicle>
    <vehicle id="40" type="passenger" depart="16.50">
        <route edges="left0A0.250.00 A0right0"/>
    </vehicle>
    <vehicle id="41" type="passenger" depart="16.60">
        <route edges="right0A0 right0A0.250.00"/>
    </vehicle>
    <vehicle id="43" type="passenger" depart="17.95">
        <route edges="left0A0.250.00 A0right0"/>
    </vehicle>
    <vehicle id="46" type="passenger" depart="21.25">
        <route edges="top0A0.250.00 A0right0"/>
    </vehicle>
    <vehicle id="47" type="passenger" depart="21.60">
        <route edges="left0A0 left0A0.250.00"/>
    </vehicle>
    <vehicle id="48" type="passenger" depart="22.30">
        <route edges="right0A0.250.00 A0top0"/>
    </vehicle>
    <vehicle id="49" type="passenger" depart="23.10">
        <route edges="top0A0 top0A0.250.00 A0bottom0"/>
    </vehicle>
    <vehicle id="50" type="passenger" depart="23.10">
        <route edges="top0A0.250.00"/>
    </vehicle>
    <vehicle id="51" type="passenger" depart="23.30">
        <route edges="top0A0.250.00 A0right0"/>
    </vehicle>
    <vehicle id="52" type="passenger" depart="25.25">
        <route edges="right0A0.250.00"/>
    </vehicle>
    <vehicle id="54" type="passenger" depart="25.75">
        <route edges="right0A0 right0A0.250.00 A0left0"/>
    </vehicle>
    <vehicle id="55" type="passenger" depart="25.75">
        <route edges="right0A0.250.00 A0bottom0"/>
    </vehicle>
    <vehicle id="58" type="passenger" depart="27.10">
        <route edges="right0A0 right0A0.250.00 A0left0"/>
    </vehicle>
    <vehicle id="61" type="passenger" depart="28.85">
        <route edges="top0A0 top0A0.250.00 A0left0"/>
    </vehicle>
    <vehicle id="63" type="passenger" depart="29.50">
        <route edges="top0A0 top0A0.250.00 A0bottom0"/>
    </vehicle>
    <vehicle id="66" type="passenger" depart="29.80">
        <route edges="bottom0A0.250.00 A0right0"/>
    </vehicle>
    <vehicle id="69" type="passenger" depart="31.70">
        <route edges="bottom0A0.250.00 A0left0"/>
    </vehicle>
    <vehicle id="70" type="passenger" depart="31.95">
        <route edges="bottom0A0 bottom0A0.250.00 A0right0"/>
    </vehicle>
    <vehicle id="71" type="passenger" depart="32.30">
        <route edges="top0A0.250.00 A0right0"/>
    </vehicle>
    <vehicle id="72" type="passenger" depart="33.80">
        <route edges="top0A0.250.00"/>
    </vehicle>
    <vehicle id="73" type="passenger" depart="34.20">
        <route edges="top0A0.250.00 A0left0"/>
    </vehicle>
    <vehicle id="74" type="passenger" depart="34.60">
        <route edges="top0A0 top0A0.250.00 A0left0"/>
    </vehicle>
    <vehicle id="75" type="passenger" depart="35.45">
        <route edges="left0A0 left0A0.250.00 A0right0"/>
    </vehicle>
    <vehicle id="78" type="passenger" depart="37.50">
        <route edges="bottom0A0 bottom0A0.250.00"/>
    </vehicle>
    <vehicle id="80" type="passenger" depart="38.55">
        <route edges="top0A0.250.00 A0bottom0"/>
    </vehicle>
    <vehicle id="84" type="passenger" depart="41.80">
        <route edges="bottom0A0.250.00"/>
    </vehicle>
    <vehicle id="86" type="passenger" depart="43.45">
        <route edges="top0A0 top0A0.250.00 A0bottom0"/>
    </vehicle>
    <vehicle id="88" type="passenger" depart="45.30">
        <route edges="top0A0 top0A0.250.00 A0bottom0"/>
    </vehicle>
    <vehicle id="89" type="passenger" depart="45.70">
        <route edges="top0A0 top0A0.250.00 A0right0"/>
    </vehicle>
    <vehicle id="93" type="passenger" depart="47.50">
        <route edges="right0A0 right0A0.250.00 A0left0"/>
    </vehicle>
    <vehicle id="94" type="passenger" depart="47.80">
        <route edges="top0A0 top0A0.250.00 A0bottom0"/>
    </vehicle>
    <vehicle id="95" type="passenger" depart="48.05">
        <route edges="left0A0 left0A0.250.00 A0bottom0"/>
    </vehicle>
    <vehicle id="96" type="passenger" depart="48.30">
        <route edges="bottom0A0.250.00 A0left0"/>
    </vehicle>
    <vehicle id="97" type="passenger" depart="49.00">
        <route edges="top0A0.250.00"/>
    </vehicle>
    <vehicle id="98" type="passenger" depart="51.55">
        <route edges="top0A0.250.00 A0right0"/>
    </vehicle>
    <vehicle id="99" type="passenger" depart="51.65">
        <route edges="top0A0.250.00 A0right0"/>
    </vehicle>
    <vehicle id="102" type="passenger" depart="52.45">
        <route edges="bottom0A0 bottom0A0.250.00 A0left0"/>
    </vehicle>
    <vehicle id="106" type="passenger" depart="53.90">
        <route edges="top0A0 top0A0.250.00"/>
    </vehicle>
    <vehicle id="107" type="passenger" depart="54.95">
        <route edges="left0A0.250.00"/>
    </vehicle>
    <vehicle id="109" type="passenger" depart="55.45">
        <route edges="top0A0 top0A0.250.00 A0bottom0"/>
    </vehicle>
    <vehicle id="110" type="passenger" depart="55.70">
        <route edges="bottom0A0.250.00"/>
    </vehicle>
    <vehicle id="111" type="passenger" depart="55.85">
        <route edges="bottom0A0 bottom0A0.250.00 A0left0"/>
    </vehicle>
    <vehicle id="113" type="passenger" depart="56.15">
        <route edges="left0A0.250.00 A0right0"/>
    </vehicle>
    <vehicle id="114" type="passenger" depart="56.45">
        <route edges="left0A0 left0A0.250.00 A0bottom0"/>
    </vehicle>
    <vehicle id="116" type="passenger" depart="57.15">
        <route edges="top0A0.250.00"/>
    </vehicle>
    <vehicle id="118" type="passenger" depart="57.90">
        <route edges="right0A0.250.00 A0left0"/>
    </vehicle>
    <vehicle id="120" type="passenger" depart="58.35">
        <route edges="top0A0.250.00 A0bottom0"/>
    </vehicle>
    <vehicle id="121" type="passenger" depart="58.95">
        <route edges="bottom0A0.250.00 A0top0"/>
    </vehicle>
    <vehicle id="122" type="passenger" depart="59.05">
        <route edges="left0A0.250.00 A0top0"/>
    </vehicle>
    <vehicle id="124" type="passenger" depart="59.10">
        <route edges="right0A0 right0A0.250.00 A0left0"/>
    </vehicle>
    <vehicle id="125" type="passenger" depart="59.35">
        <route edges="top0A0.250.00"/>
    </vehicle>
    <vehicle id="126" type="passenger" depart="59.60">
        <route edges="top0A0.250.00 A0bottom0"/>
    </vehicle>
    <vehicle id="129" type="passenger" depart="60.70">
        <route edges="left0A0.250.00 A0right0"/>
    </vehicle>
    <vehicle id="134" type="passenger" depart="62.40">
        <route edges="bottom0A0.250.00 A0top0"/>
    </vehicle>
    <vehicle id="135" type="passenger" depart="63.85">
        <route edges="right0A0.250.00 A0top0"/>
    </vehicle>
    <vehicle id="136" type="passenger" depart="63.85">
        <route edges="left0A0 left0A0.250.00"/>
    </vehicle>
    <vehicle id="138" type="passenger" depart="64.25">
        <route edges="bottom0A0.250.00"/>
    </vehicle>
    <vehicle id="139" type="passenger" depart="64.90">
        <route edges="top0A0 top0A0.250.00 A0bottom0"/>
    </vehicle>
    <vehicle id="142" type="passenger" depart="65.75">
        <route edges="right0A0.250.00 A0top0"/>
    </vehicle>
    <vehicle id="146" type="passenger" depart="69.10">
        <route edges="right0A0.250.00 A0top0"/>
    </vehicle>
    <vehicle id="148" type="passenger" depart="69.50">
        <route edges="left0A0 left0A0.250.00"/>
    </vehicle>
    <vehicle id="150" type="passenger" depart="70.20">
        <route edges="right0A0.250.00 A0bottom0"/>
    </vehicle>
    <vehicle id="151" type="passenger" depart="70.30">
        <route edges="top0A0.250.00 A0left0"/>
    </vehicle>
    <vehicle id="156" type="passenger" depart="71.70">
        <route edges="left0A0.250.00 A0bottom0"/>
    </vehicle>
    <vehicle id="158" type="passenger" depart="72.10">
        <route edges="top0A0.250.00"/>
    </vehicle>
    <vehicle id="159" type="passenger" depart="72.45">
        <route edges="bottom0A0.250.00 A0left0"/>
    </vehicle>
    <vehicle id="161" type="passenger" depart="72.60">
        <route edges="right0A0.250.00"/>
    </vehicle>
    <vehicle id="163" type="passenger" depart="73.20">
        <route edges="left0A0 left0A0.250.00 A0right0"/>
    </vehicle>
    <vehicle id="165" type="passenger" depart="75.05">
        <route edges="bottom0A0 bottom0A0.250.00 A0left0"/>
    </vehicle>
    <vehicle id="166" type="passenger" depart="75.10">
        <route edges="top0A0 top0A0.250.00 A0right0"/>
    </vehicle>
    <vehicle id="168" type="passenger" depart="75.75">
        <route edges="top0A0 top0A0.250.00 A0bottom0"/>
    </vehicle>
    <vehicle id="169" type="passenger" depart="75.80">
        <route edges="bottom0A0 bottom0A0.250.00 A0left0"/>
    </vehicle>
    <vehicle id="174" type="passenger" depart="77.20">
        <route edges="bottom0A0 bottom0A0.250.00 A0right0"/>
    </vehicle>
    <vehicle id="175" type="passenger" depart="77.90">
        <route edges="bottom0A0 bottom0A0.250.00 A0right0"/>
    </vehicle>
    <vehicle id="176" type="passenger" depart="77.95">
        <route edges="right0A0 right0A0.250.00 A0left0"/>
    </vehicle>
    <vehicle id="177" type="passenger" depart="78.20">
        <route edges="bottom0A0.250.00 A0right0"/>
    </vehicle>
    <vehicle id="179" type="passenger" depart="78.35">
        <route edges="top0A0.250.00 A0bottom0"/>
    </vehicle>
    <vehicle id="180" type="passenger" depart="78.55">
        <route edges="right0A0 right0A0.250.00 A0top0"/>
    </vehicle>
    <vehicle id="181" type="passenger" depart="78.95">
        <route edges="right0A0.250.00 A0top0"/>
    </vehicle>
    <vehicle id="183" type="passenger" depart="79.20">
        <route edges="bottom0A0.250.00"/>
    </vehicle>
    <vehicle id="184" type="passenger" depart="80.45">
        <route edges="bottom0A0 bottom0A0.250.00 A0right0"/>
    </vehicle>
    <vehicle id="186" type="passenger" depart="81.15">
        <route edges="top0A0.250.00 A0left0"/>
    </vehicle>
    <vehicle id="188" type="passenger" depart="81.50">
        <route edges="top0A0 top0A0.250.00 A0right0"/>
    </vehicle>
    <vehicle id="189" type="passenger" depart="82.65">
        <route edges="right0A0 right0A0.250.00 A0bottom0"/>
    </vehicle>
    <vehicle id="191" type="passenger" depart="83.65">
        <route edges="bottom0A0.250.00 A0top0"/>
    </vehicle>
    <vehicle id="194" type="passenger" depart="84.40">
        <route edges="bottom0A0.250.00 A0left0"/>
    </vehicle>
    <vehicle id="195" type="passenger" depart="84.90">
        <route edges="right0A0 right0A0.250.00 A0left0"/>
    </vehicle>
    <vehicle id="196" type="passenger" depart="85.10">
        <route edges="top0A0 top0A0.250.00 A0right0"/>
    </vehicle>
    <vehicle id="197" type="passenger" depart="85.30">
        <route edges="top0A0.250.00 A0bottom0"/>
    </vehicle>
    <vehicle id="200" type="passenger" depart="87.05">
        <route edges="top0A0 top0A0.250.00"/>
    </vehicle>
    <vehicle id="201" type="passenger" depart="87.45">
        <route edges="left0A0 left0A0.250.00 A0top0"/>
    </vehicle>
    <vehicle id="203" type="passenger" depart="87.70">
        <route edges="left0A0.250.00"/>
    </vehicle>
    <vehicle id="204" type="passenger" depart="89.20">
        <route edges="left0A0.250.00 A0top0"/>
    </vehicle>
    <vehicle id="205" type="passenger" depart="89.30">
        <route edges="left0A0 left0A0.250.00 A0bottom0"/>
    </vehicle>
    <vehicle id="206" type="passenger" depart="90.05">
        <route edges="bottom0A0 bottom0A0.250.00"/>
    </vehicle>
    <vehicle id="208" type="passenger" depart="91.70">
        <route edges="top0A0 top0A0.250.00 A0bottom0"/>
    </vehicle>
    <vehicle id="210" type="passenger" depart="92.10">
        <route edges="bottom0A0.250.00 A0left0"/>
    </vehicle>
    <vehicle id="212" type="passenger" depart="92.50">
        <route edges="right0A0.250.00 A0bottom0"/>
    </vehicle>
    <vehicle id="214" type="passenger" depart="92.95">
        <route edges="bottom0A0.250.00"/>
    </vehicle>
    <vehicle id="215" type="passenger" depart="93.00">
        <route edges="right0A0.250.00 A0left0"/>
    </vehicle>
    <vehicle id="216" type="passenger" depart="93.20">
        <route edges="left0A0.250.00 A0right0"/>
    </vehicle>
    <vehicle id="220" type="passenger" depart="93.95">
        <route edges="top0A0 top0A0.250.00"/>
    </vehicle>
    <vehicle id="222" type="passenger" depart="94.30">
        <route edges="top0A0.250.00 A0right0"/>
    </vehicle>
    <vehicle id="224" type="passenger" depart="95.50">
        <route edges="right0A0 right0A0.250.00 A0bottom0"/>
    </vehicle>
    <vehicle id="229" type="passenger" depart="97.10">
        <route edges="top0A0 top0A0.250.00"/>
    </vehicle>
    <vehicle id="233" type="passenger" depart="101.00">
        <route edges="bottom0A0 bottom0A0.250.00 A0top0"/>
    </vehicle>
    <vehicle id="234" type="passenger" depart="101.10">
        <route edges="bottom0A0 bottom0A0.250.00 A0left0"/>
    </vehicle>
    <vehicle id="237" type="passenger" depart="101.30">
        <route edges="bottom0A0.250.00 A0left0"/>
    </vehicle>
    <vehicle id="238" type="passenger" depart="101.50">
        <route edges="bottom0A0 bottom0A0.250.00 A0right0"/>
    </vehicle>
    <vehicle id="239" type="passenger" depart="101.55">
        <route edges="left0A0 left0A0.250.00 A0right0"/>
    </vehicle>
    <vehicle id="240" type="passenger" depart="102.40">
        <route edges="left0A0.250.00 A0top0"/>
    </vehicle>
    <vehicle id="242" type="passenger" depart="102.70">
        <route edges="right0A0.250.00 A0left0"/>
    </vehicle>
    <vehicle id="246" type="passenger" depart="103.80">
        <route edges="right0A0.250.00"/>
    </vehicle>
    <vehicle id="247" type="passenger" depart="103.85">
        <route edges="bottom0A0.250.00 A0right0"/>
    </vehicle>
    <vehicle id="253" type="passenger" depart="107.40">
        <route edges="bottom0A0 bottom0A0.250.00 A0left0"/>
    </vehicle>
    <vehicle id="254" type="passenger" depart="108.60">
        <route edges="top0A0.250.00"/>
    </vehicle>
    <vehicle id="255" type="passenger" depart="109.10">
        <route edges="top0A0.250.00 A0bottom0"/>
    </vehicle>
    <vehicle id="257" type="passenger" depart="111.25">
        <route edges="right0A0.250.00 A0top0"/>
    </vehicle>
    <vehicle id="258" type="passenger" depart="111.50">
        <route edges="left0A0.250.00 A0top0"/>
    </vehicle>
    <vehicle id="259" type="passenger" depart="112.50">
        <route edges="bottom0A0 bottom0A0.250.00 A0right0"/>
    </vehicle>
    <vehicle id="260" type="passenger" depart="112.75">
        <route edges="bottom0A0.250.00 A0right0"/>
    </vehicle>
    <vehicle id="263" type="passenger" depart="116.15">
        <route edges="bottom0A0 bottom0A0.250.00 A0top0"/>
    </vehicle>
    <vehicle id="264" type="passenger" depart="117.15">
        <route edges="right0A0 right0A0.250.00 A0bottom0"/>
    </vehicle>
    <vehicle id="265" type="passenger" depart="117.90">
        <route edges="right0A0.250.00"/>
    </vehicle>
    <vehicle id="266" type="passenger" depart="118.20">
        <route edges="bottom0A0 bottom0A0.250.00 A0right0"/>
    </vehicle>
    <vehicle id="267" type="passenger" depart="118.65">
        <route edges="top0A0.250.00 A0bottom0"/>
    </vehicle>
    <vehicle id="270" type="passenger" depart="120.10">
        <route edges="right0A0.250.00 A0bottom0"/>
    </vehicle>
    <vehicle id="273" type="passenger" depart="120.80">
        <route edges="left0A0.250.00 A0top0"/>
    </vehicle>
    <vehicle id="278" type="passenger" depart="121.45">
        <route edges="right0A0.250.00 A0bottom0"/>
    </vehicle>
    <vehicle id="279" type="passenger" depart="122.25">
        <route edges="top0A0.250.00"/>
    </vehicle>
    <vehicle id="280" type="passenger" depart="123.65">
        <route edges="bottom0A0.250.00 A0right0"/>
    </vehicle>
    <vehicle id="281" type="passenger" depart="123.70">
        <route edges="top0A0 top0A0.250.00 A0left0"/>
    </vehicle>
    <vehicle id="282" type="passenger" depart="124.50">
        <route edges="top0A0.250.00 A0left0"/>
    </vehicle>
    <vehicle id="285" type="passenger" depart="125.10">
        <route edges="top0A0.250.00"/>
    </vehicle>
    <vehicle id="286" type="passenger" depart="126.60">
        <route edges="bottom0A0 bottom0A0.250.00"/>
    </vehicle>
    <vehicle id="287" type="passenger" depart="127.45">
        <route edges="left0A0.250.00"/>
    </vehicle>
    <vehicle id="288" type="passenger" depart="128.20">
        <route edges="left0A0 left0A0.250.00"/>
    </vehicle>
    <vehicle id="291" type="passenger" depart="129.85">
        <route edges="top0A0 top0A0.250.00 A0left0"/>
    </vehicle>
    <vehicle id="292" type="passenger" depart="130.00">
        <route edges="right0A0 right0A0.250.00 A0bottom0"/>
    </vehicle>
    <vehicle id="296" type="passenger" depart="131.65">
        <route edges="top0A0 top0A0.250.00"/>
    </vehicle>
    <vehicle id="297" type="passenger" depart="132.15">
        <route edges="left0A0 left0A0.250.00 A0right0"/>
    </vehicle>
    <vehicle id="298" type="passenger" depart="132.30">
        <route edges="left0A0.250.00 A0right0"/>
    </vehicle>
    <vehicle id="299" type="passenger" depart="132.35">
        <route edges="left0A0 left0A0.250.00 A0right0"/>
    </vehicle>
    <vehicle id="306" type="passenger" depart="134.15">
        <route edges="top0A0 top0A0.250.00"/>
    </vehicle>
    <vehicle id="309" type="passenger" depart="136.90">
        <route edges="right0A0.250.00 A0top0"/>
    </vehicle>
    <vehicle id="310" type="passenger" depart="137.20">
        <route edges="top0A0 top0A0.250.00"/>
    </vehicle>
    <vehicle id="312" type="passenger" depart="137.35">
        <route edges="bottom0A0.250.00 A0top0"/>
    </vehicle>
    <vehicle id="313" type="passenger" depart="138.50">
        <route edges="left0A0 left0A0.250.00 A0right0"/>
    </vehicle>
    <vehicle id="315" type="passenger" depart="139.70">
        <route edges="top0A0.250.00"/>
    </vehicle>
    <vehicle id="316" type="passenger" depart="140.00">
        <route edges="left0A0 left0A0.250.00 A0bottom0"/>
    </vehicle>
    <vehicle id="318" type="passenger" depart="141.35">
        <route edges="left0A0.250.00 A0top0"/>
    </vehicle>
    <vehicle id="320" type="passenger" depart="141.85">
        <route edges="top0A0.250.00"/>
    </vehicle>
    <vehicle id="321" type="passenger" depart="142.60">
        <route edges="top0A0 top0A0.250.00 A0right0"/>
    </vehicle>
    <vehicle id="322" type="passenger" depart="142.75">
        <route edges="left0A0.250.00 A0right0"/>
    </vehicle>
    <vehicle id="323" type="passenger" depart="143.00">
        <route edges="top0A0.250.00 A0left0"/>
    </vehicle>
    <vehicle id="324" type="passenger" depart="143.70">
        <route edges="bottom0A0.250.00 A0right0"/>
    </vehicle>
    <vehicle id="327" type="passenger" depart="145.35">
        <route edges="left0A0.250.00 A0right0"/>
    </vehicle>
    <vehicle id="328" type="passenger" depart="145.40">
        <route edges="right0A0.250.00 A0top0"/>
    </vehicle>
    <vehicle id="331" type="passenger" depart="146.30">
        <route edges="right0A0.250.00"/>
    </vehicle>
    <vehicle id="333" type="passenger" depart="146.60">
        <route edges="top0A0 top0A0.250.00"/>
    </vehicle>
    <vehicle id="335" type="passenger" depart="147.65">
        <route edges="top0A0 top0A0.250.00 A0left0"/>
    </vehicle>
    <vehicle id="336" type="passenger" depart="147.65">
        <route edges="right0A0.250.00"/>
    </vehicle>
    <vehicle id="337" type="passenger" depart="149.15">
        <route edges="right0A0.250.00 A0left0"/>
    </vehicle>
    <vehicle id="338" type="passenger" depart="149.35">
        <route edges="top0A0.250.00 A0left0"/>
    </vehicle>
    <vehicle id="339" type="passenger" depart="149.95">
        <route edges="right0A0 right0A0.250.00 A0left0"/>
    </vehicle>
    <vehicle id="342" type="passenger" depart="151.20">
        <route edges="right0A0 right0A0.250.00 A0left0"/>
    </vehicle>
    <vehicle id="343" type="passenger" depart="151.55">
        <route edges="top0A0.250.00 A0right0"/>
    </vehicle>
    <vehicle id="345" type="passenger" depart="152.75">
        <route edges="right0A0.250.00 A0left0"/>
    </vehicle>
    <vehicle id="346" type="passenger" depart="152.95">
        <route edges="right0A0.250.00 A0left0"/>
    </vehicle>
    <vehicle id="347" type="passenger" depart="153.35">
        <route edges="top0A0 top0A0.250.00"/>
    </vehicle>
    <vehicle id="348" type="passenger" depart="153.60">
        <route edges="bottom0A0.250.00"/>
    </vehicle>
    <vehicle id="349" type="passenger" depart="154.50">
        <route edges="right0A0 right0A0.250.00 A0left0"/>
    </vehicle>
    <vehicle id="353" type="passenger" depart="155.55">
        <route edges="bottom0A0.250.00 A0right0"/>
    </vehicle>
    <vehicle id="359" type="passenger" depart="157.45">
        <route edges="top0A0.250.00"/>
    </vehicle>
    <vehicle id="361" type="passenger" depart="158.25">
        <route edges="right0A0 right0A0.250.00 A0left0"/>
    </vehicle>
    <vehicle id="367" type="passenger" depart="159.00">
        <route edges="right0A0.250.00 A0left0"/>
    </vehicle>
    <vehicle id="368" type="passenger" depart="159.30">
        <route edges="top0A0.250.00"/>
    </vehicle>
    <vehicle id="369" type="passenger" depart="159.50">
        <route edges="bottom0A0.250.00 A0left0"/>
    </vehicle>
    <vehicle id="370" type="passenger" depart="159.60">
        <route edges="right0A0.250.00 A0bottom0"/>
    </vehicle>
    <vehicle id="371" type="passenger" depart="159.80">
        <route edges="right0A0.250.00 A0top0"/>
    </vehicle>
    <vehicle id="373" type="passenger" depart="161.45">
        <route edges="top0A0 top0A0.250.00"/>
    </vehicle>
    <vehicle id="375" type="passenger" depart="162.25">
        <route edges="bottom0A0.250.00"/>
    </vehicle>
    <vehicle id="376" type="passenger" depart="162.30">
        <route edges="bottom0A0 bottom0A0.250.00 A0left0"/>
    </vehicle>
    <vehicle id="379" type="passenger" depart="163.15">
        <route edges="top0A0.250.00"/>
    </vehicle>
    <vehicle id="381" type="passenger" depart="164.10">
        <route edges="bottom0A0.250.00 A0right0"/>
    </vehicle>
    <vehicle id="382" type="passenger" depart="164.50">
        <route edges="left0A0 left0A0.250.00 A0right0"/>
    </vehicle>
    <vehicle id="383" type="passenger" depart="165.10">
        <route edges="top0A0 top0A0.250.00 A0right0"/>
    </vehicle>
    <vehicle id="387" type="passenger" depart="168.30">
        <route edges="left0A0.250.00"/>
    </vehicle>
    <vehicle id="389" type="passenger" depart="172.05">
        <route edges="bottom0A0.250.00 A0top0"/>
    </vehicle>
    <vehicle id="390" type="passenger" depart="173.25">
        <route edges="bottom0A0 bottom0A0.250.00 A0right0"/>
    </vehicle>
    <vehicle id="392" type="passenger" depart="173.35">
        <route edges="top0A0 top0A0.250.00 A0right0"/>
    </vehicle>
    <vehicle id="394" type="passenger" depart="173.95">
        <route edges="bottom0A0 bottom0A0.250.00"/>
    </vehicle>
    <vehicle id="395" type="passenger" depart="174.40">
        <route edges="left0A0 left0A0.250.00 A0right0"/>
    </vehicle>
    <vehicle id="397" type="passenger" depart="176.25">
        <route edges="top0A0.250.00 A0right0"/>
    </vehicle>
    <vehicle id="399" type="passenger" depart="176.80">
        <route edges="left0A0.250.00"/>
    </vehicle>
    <vehicle id="400" type="passenger" depart="176.95">
        <route edges="left0A0.250.00"/>
    </vehicle>
    <vehicle id="401" type="passenger" depart="177.15">
        <route edges="bottom0A0 bottom0A0.250.00 A0left0"/>
    </vehicle>
    <vehicle id="403" type="passenger" depart="178.60">
        <route edges="left0A0 left0A0.250.00 A0right0"/>
    </vehicle>
    <vehicle id="405" type="passenger" depart="179.15">
        <route edges="right0A0.250.00"/>
    </vehicle>
    <vehicle id="406" type="passenger" depart="180.95">
        <route edges="bottom0A0 bottom0A0.250.00 A0top0"/>
    </vehicle>
    <vehicle id="407" type="passenger" depart="181.10">
        <route edges="left0A0.250.00 A0right0"/>
    </vehicle>
    <vehicle id="410" type="passenger" depart="183.65">
        <route edges="right0A0.250.00 A0left0"/>
    </vehicle>
    <vehicle id="411" type="passenger" depart="184.05">
        <route edges="top0A0 top0A0.250.00"/>
    </vehicle>
    <vehicle id="416" type="passenger" depart="184.95">
        <route edges="left0A0 left0A0.250.00 A0right0"/>
    </vehicle>
    <vehicle id="418" type="passenger" depart="185.35">
        <route edges="top0A0.250.00 A0left0"/>
    </vehicle>
    <vehicle id="419" type="passenger" depart="185.80">
        <route edges="left0A0 left0A0.250.00 A0right0"/>
    </vehicle>
    <vehicle id="420" type="passenger" depart="186.50">
        <route edges="left0A0.250.00 A0right0"/>
    </vehicle>
    <vehicle id="421" type="passenger" depart="186.80">
        <route edges="bottom0A0 bottom0A0.250.00 A0right0"/>
    </vehicle>
    <vehicle id="422" type="passenger" depart="187.20">
        <route edges="bottom0A0 bottom0A0.250.00 A0left0"/>
    </vehicle>
    <vehicle id="423" type="passenger" depart="187.85">
        <route edges="bottom0A0.250.00 A0left0"/>
    </vehicle>
    <vehicle id="424" type="passenger" depart="188.20">
        <route edges="top0A0 top0A0.250.00 A0right0"/>
    </vehicle>
    <vehicle id="433" type="passenger" depart="193.35">
        <route edges="right0A0.250.00 A0bottom0"/>
    </vehicle>
    <vehicle id="434" type="passenger" depart="193.95">
        <route edges="bottom0A0.250.00"/>
    </vehicle>
    <vehicle id="439" type="passenger" depart="196.15">
        <route edges="bottom0A0.250.00 A0left0"/>
    </vehicle>
    <vehicle id="440" type="passenger" depart="196.30">
        <route edges="top0A0.250.00 A0right0"/>
    </vehicle>
    <vehicle id="442" type="passenger" depart="197.65">
        <route edges="left0A0.250.00"/>
    </vehicle>
    <vehicle id="443" type="passenger" depart="197.65">
        <route edges="bottom0A0.250.00"/>
    </vehicle>