<?xml version="1.0" encoding="UTF-8"?>

<!-- generated on 2023-04-26 16:56:39.502910 by randomTrips.py UNKNOWN
<configuration>
    <begin value="0"/>
    <end value="900"/>
    <insertion-rate value="8000.0"/>
    <net-file value="/home/franky3er/Documents/code/HieraGLight/scenarios/grid/1x1-500m/train/13-scenario/network.net.xml"/>
    <random value="True"/>
    <random-depart value="True"/>
    <route-file value="/home/franky3er/Documents/code/HieraGLight/scenarios/grid/1x1-500m/train/13-scenario/routes.rou.xml"/>
    <seed value="13"/>
    <output-trip-file value="/home/franky3er/Documents/code/HieraGLight/scenarios/grid/1x1-500m/train/13-scenario/trips.trips.xml"/>
    <vehicle-class value="passenger"/>
</configuration>
-->

<!-- generated on 2023-04-26 16:56:39 by Eclipse SUMO duarouter Version 1.16.0
<configuration xmlns:xsi="http://www.w3.org/2001/XMLSchema-instance" xsi:noNamespaceSchemaLocation="http://sumo.dlr.de/xsd/duarouterConfiguration.xsd">

    <input>
        <net-file value="/home/franky3er/Documents/code/HieraGLight/scenarios/grid/1x1-500m/train/13-scenario/network.net.xml"/>
        <route-files value="/home/franky3er/Documents/code/HieraGLight/scenarios/grid/1x1-500m/train/13-scenario/trips.trips.xml"/>
    </input>

    <output>
        <output-file value="/home/franky3er/Documents/code/HieraGLight/scenarios/grid/1x1-500m/train/13-scenario/routes.rou.xml"/>
        <alternatives-output value="NUL"/>
    </output>

    <time>
        <begin value="0"/>
        <end value="900"/>
    </time>

    <report>
        <no-warnings value="true"/>
        <ignore-errors value="true"/>
        <no-step-log value="true"/>
    </report>

</configuration>
-->

<routes xmlns:xsi="http://www.w3.org/2001/XMLSchema-instance" xsi:noNamespaceSchemaLocation="http://sumo.dlr.de/xsd/routes_file.xsd">
    <vType id="passenger" vClass="passenger"/>
    <vehicle id="2" type="passenger" depart="1.45">
        <route edges="bottom0A0.250.00 A0left0"/>
    </vehicle>
    <vehicle id="3" type="passenger" depart="2.70">
        <route edges="top0A0 top0A0.250.00"/>
    </vehicle>
    <vehicle id="4" type="passenger" depart="3.25">
        <route edges="top0A0 top0A0.250.00 A0right0"/>
    </vehicle>
    <vehicle id="6" type="passenger" depart="4.45">
        <route edges="top0A0 top0A0.250.00"/>
    </vehicle>
    <vehicle id="7" type="passenger" depart="4.95">
        <route edges="right0A0 right0A0.250.00 A0left0"/>
    </vehicle>
    <vehicle id="13" type="passenger" depart="9.30">
        <route edges="left0A0 left0A0.250.00 A0top0"/>
    </vehicle>
    <vehicle id="14" type="passenger" depart="9.65">
        <route edges="bottom0A0.250.00"/>
    </vehicle>
    <vehicle id="18" type="passenger" depart="10.85">
        <route edges="top0A0 top0A0.250.00 A0left0"/>
    </vehicle>
    <vehicle id="19" type="passenger" depart="10.95">
        <route edges="bottom0A0 bottom0A0.250.00"/>
    </vehicle>
    <vehicle id="20" type="passenger" depart="11.15">
        <route edges="left0A0 left0A0.250.00"/>
    </vehicle>
    <vehicle id="21" type="passenger" depart="11.30">
        <route edges="bottom0A0.250.00 A0top0"/>
    </vehicle>
    <vehicle id="22" type="passenger" depart="11.40">
        <route edges="top0A0 top0A0.250.00"/>
    </vehicle>
    <vehicle id="24" type="passenger" depart="12.80">
        <route edges="right0A0 right0A0.250.00"/>
    </vehicle>
    <vehicle id="25" type="passenger" depart="13.65">
        <route edges="right0A0 right0A0.250.00 A0left0"/>
    </vehicle>
    <vehicle id="27" type="passenger" depart="14.45">
        <route edges="left0A0 left0A0.250.00 A0right0"/>
    </vehicle>
    <vehicle id="29" type="passenger" depart="15.00">
        <route edges="left0A0 left0A0.250.00 A0right0"/>
    </vehicle>
    <vehicle id="30" type="passenger" depart="15.00">
        <route edges="top0A0 top0A0.250.00 A0left0"/>
    </vehicle>
    <vehicle id="31" type="passenger" depart="15.15">
        <route edges="right0A0.250.00 A0left0"/>
    </vehicle>
    <vehicle id="32" type="passenger" depart="15.45">
        <route edges="right0A0 right0A0.250.00 A0bottom0"/>
    </vehicle>
    <vehicle id="35" type="passenger" depart="16.45">
        <route edges="top0A0.250.00 A0bottom0"/>
    </vehicle>
    <vehicle id="39" type="passenger" depart="16.80">
        <route edges="top0A0 top0A0.250.00 A0right0"/>
    </vehicle>
    <vehicle id="41" type="passenger" depart="19.55">
        <route edges="right0A0 right0A0.250.00 A0bottom0"/>
    </vehicle>
    <vehicle id="45" type="passenger" depart="20.70">
        <route edges="right0A0 right0A0.250.00 A0left0"/>
    </vehicle>
    <vehicle id="47" type="passenger" depart="23.20">
        <route edges="bottom0A0.250.00"/>
    </vehicle>
    <vehicle id="51" type="passenger" depart="26.40">
        <route edges="top0A0 top0A0.250.00 A0left0"/>
    </vehicle>
    <vehicle id="54" type="passenger" depart="26.95">
        <route edges="top0A0 top0A0.250.00 A0right0"/>
    </vehicle>
    <vehicle id="56" type="passenger" depart="28.10">
        <route edges="top0A0.250.00 A0right0"/>
    </vehicle>
    <vehicle id="59" type="passenger" depart="28.35">
        <route edges="right0A0.250.00 A0bottom0"/>
    </vehicle>
    <vehicle id="63" type="passenger" depart="30.55">
        <route edges="bottom0A0.250.00 A0right0"/>
    </vehicle>
    <vehicle id="65" type="passenger" depart="32.20">
        <route edges="bottom0A0.250.00 A0left0"/>
    </vehicle>
    <vehicle id="66" type="passenger" depart="33.65">
        <route edges="bottom0A0 bottom0A0.250.00 A0right0"/>
    </vehicle>
    <vehicle id="69" type="passenger" depart="35.75">
        <route edges="left0A0.250.00 A0right0"/>
    </vehicle>
    <vehicle id="72" type="passenger" depart="37.70">
        <route edges="right0A0.250.00 A0top0"/>
    </vehicle>
    <vehicle id="76" type="passenger" depart="38.25">
        <route edges="bottom0A0 bottom0A0.250.00"/>
    </vehicle>
    <vehicle id="79" type="passenger" depart="40.45">
        <route edges="right0A0 right0A0.250.00 A0left0"/>
    </vehicle>
    <vehicle id="80" type="passenger" depart="40.70">
        <route edges="right0A0.250.00"/>
    </vehicle>
    <vehicle id="81" type="passenger" depart="41.35">
        <route edges="right0A0.250.00 A0top0"/>
    </vehicle>
    <vehicle id="83" type="passenger" depart="43.45">
        <route edges="top0A0.250.00 A0left0"/>
    </vehicle>
    <vehicle id="84" type="passenger" depart="43.55">
        <route edges="top0A0 top0A0.250.00 A0bottom0"/>
    </vehicle>
    <vehicle id="85" type="passenger" depart="43.70">
        <route edges="right0A0.250.00 A0top0"/>
    </vehicle>
    <vehicle id="86" type="passenger" depart="44.65">
        <route edges="top0A0 top0A0.250.00 A0right0"/>
    </vehicle>
    <vehicle id="90" type="passenger" depart="47.10">
        <route edges="top0A0 top0A0.250.00 A0bottom0"/>
    </vehicle>
    <vehicle id="92" type="passenger" depart="48.30">
        <route edges="right0A0.250.00 A0bottom0"/>
    </vehicle>
    <vehicle id="93" type="passenger" depart="50.85">
        <route edges="top0A0.250.00"/>
    </vehicle>
    <vehicle id="94" type="passenger" depart="51.05">
        <route edges="bottom0A0.250.00 A0right0"/>
    </vehicle>
    <vehicle id="95" type="passenger" depart="51.65">
        <route edges="bottom0A0.250.00 A0top0"/>
    </vehicle>
    <vehicle id="101" type="passenger" depart="54.40">
        <route edges="right0A0 right0A0.250.00"/>
    </vehicle>
    <vehicle id="102" type="passenger" depart="55.15">
        <route edges="left0A0.250.00 A0top0"/>
    </vehicle>
    <vehicle id="103" type="passenger" depart="55.25">
        <route edges="bottom0A0.250.00 A0top0"/>
    </vehicle>
    <vehicle id="104" type="passenger" depart="55.70">
        <route edges="bottom0A0 bottom0A0.250.00 A0right0"/>
    </vehicle>
    <vehicle id="107" type="passenger" depart="57.35">
        <route edges="right0A0 right0A0.250.00 A0bottom0"/>
    </vehicle>
    <vehicle id="108" type="passenger" depart="57.85">
        <route edges="left0A0 left0A0.250.00"/>
    </vehicle>
    <vehicle id="110" type="passenger" depart="58.20">
        <route edges="left0A0 left0A0.250.00 A0top0"/>
    </vehicle>
    <vehicle id="111" type="passenger" depart="58.40">
        <route edges="right0A0.250.00 A0bottom0"/>
    </vehicle>
    <vehicle id="114" type="passenger" depart="60.05">
        <route edges="top0A0.250.00 A0bottom0"/>
    </vehicle>
    <vehicle id="115" type="passenger" depart="60.45">
        <route edges="right0A0 right0A0.250.00 A0bottom0"/>
    </vehicle>
    <vehicle id="117" type="passenger" depart="61.35">
        <route edges="bottom0A0.250.00 A0right0"/>
    </vehicle>
    <vehicle id="119" type="passenger" depart="62.70">
        <route edges="top0A0.250.00 A0bottom0"/>
    </vehicle>
    <vehicle id="120" type="passenger" depart="63.35">
        <route edges="top0A0.250.00 A0bottom0"/>
    </vehicle>
    <vehicle id="121" type="passenger" depart="63.45">
        <route edges="right0A0.250.00 A0bottom0"/>
    </vehicle>
    <vehicle id="122" type="passenger" depart="63.85">
        <route edges="left0A0.250.00 A0bottom0"/>
    </vehicle>
    <vehicle id="124" type="passenger" depart="64.10">
        <route edges="right0A0 right0A0.250.00"/>
    </vehicle>
    <vehicle id="125" type="passenger" depart="64.15">
        <route edges="bottom0A0.250.00"/>
    </vehicle>
    <vehicle id="127" type="passenger" depart="65.10">
        <route edges="top0A0.250.00"/>
    </vehicle>
    <vehicle id="130" type="passenger" depart="67.10">
        <route edges="bottom0A0.250.00 A0right0"/>
    </vehicle>
    <vehicle id="131" type="passenger" depart="67.20">
        <route edges="bottom0A0 bottom0A0.250.00 A0right0"/>
    </vehicle>
    <vehicle id="133" type="passenger" depart="68.90">
        <route edges="bottom0A0 bottom0A0.250.00 A0right0"/>
    </vehicle>
    <vehicle id="134" type="passenger" depart="68.95">
        <route edges="bottom0A0 bottom0A0.250.00"/>
    </vehicle>
    <vehicle id="136" type="passenger" depart="70.75">
        <route edges="bottom0A0.250.00 A0top0"/>
    </vehicle>
    <vehicle id="137" type="passenger" depart="70.80">
        <route edges="top0A0.250.00 A0bottom0"/>
    </vehicle>
    <vehicle id="138" type="passenger" depart="72.00">
        <route edges="top0A0 top0A0.250.00 A0right0"/>
    </vehicle>
    <vehicle id="139" type="passenger" depart="72.00">
        <route edges="right0A0 right0A0.250.00 A0left0"/>
    </vehicle>
    <vehicle id="140" type="passenger" depart="72.90">
        <route edges="top0A0.250.00 A0right0"/>
    </vehicle>
    <vehicle id="143" type="passenger" depart="74.05">
        <route edges="bottom0A0 bottom0A0.250.00 A0right0"/>
    </vehicle>
    <vehicle id="144" type="passenger" depart="74.45">
        <route edges="bottom0A0.250.00 A0top0"/>
    </vehicle>
    <vehicle id="145" type="passenger" depart="74.65">
        <route edges="top0A0 top0A0.250.00"/>
    </vehicle>
    <vehicle id="147" type="passenger" depart="75.80">
        <route edges="left0A0 left0A0.250.00 A0right0"/>
    </vehicle>
    <vehicle id="149" type="passenger" depart="76.95">
        <route edges="left0A0.250.00 A0bottom0"/>
    </vehicle>
    <vehicle id="150" type="passenger" depart="77.65">
        <route edges="bottom0A0.250.00 A0left0"/>
    </vehicle>
    <vehicle id="151" type="passenger" depart="78.65">
        <route edges="bottom0A0 bottom0A0.250.00"/>
    </vehicle>
    <vehicle id="152" type="passenger" depart="78.65">
        <route edges="left0A0 left0A0.250.00 A0bottom0"/>
    </vehicle>
    <vehicle id="155" type="passenger" depart="80.35">
        <route edges="left0A0.250.00 A0bottom0"/>
    </vehicle>
    <vehicle id="159" type="passenger" depart="81.60">
        <route edges="top0A0 top0A0.250.00 A0left0"/>
    </vehicle>
    <vehicle id="162" type="passenger" depart="83.40">
        <route edges="top0A0 top0A0.250.00 A0right0"/>
    </vehicle>
    <vehicle id="163" type="passenger" depart="83.45">
        <route edges="right0A0.250.00 A0left0"/>
    </vehicle>
    <vehicle id="167" type="passenger" depart="83.65">
        <route edges="right0A0 right0A0.250.00 A0left0"/>
    </vehicle>
    <vehicle id="169" type="passenger" depart="83.80">
        <route edges="left0A0.250.00 A0top0"/>
    </vehicle>
    <vehicle id="170" type="passenger" depart="84.05">
        <route edges="top0A0 top0A0.250.00 A0left0"/>
    </vehicle>
    <vehicle id="172" type="passenger" depart="84.35">
        <route edges="left0A0.250.00 A0top0"/>
    </vehicle>
    <vehicle id="175" type="passenger" depart="86.40">
        <route edges="right0A0 right0A0.250.00"/>
    </vehicle>
    <vehicle id="176" type="passenger" depart="87.00">
        <route edges="top0A0.250.00 A0right0"/>
    </vehicle>
    <vehicle id="180" type="passenger" depart="88.85">
        <route edges="bottom0A0 bottom0A0.250.00"/>
    </vehicle>
    <vehicle id="181" type="passenger" depart="89.65">
        <route edges="left0A0 left0A0.250.00"/>
    </vehicle>
    <vehicle id="183" type="passenger" depart="89.95">
        <route edges="left0A0 left0A0.250.00 A0right0"/>
    </vehicle>
    <vehicle id="184" type="passenger" depart="90.40">
        <route edges="bottom0A0 bottom0A0.250.00 A0right0"/>
    </vehicle>
    <vehicle id="185" type="passenger" depart="90.85">
        <route edges="top0A0.250.00"/>
    </vehicle>
    <vehicle id="186" type="passenger" depart="90.85">
        <route edges="left0A0.250.00 A0top0"/>
    </vehicle>
    <vehicle id="188" type="passenger" depart="92.45">
        <route edges="top0A0 top0A0.250.00 A0right0"/>
    </vehicle>
    <vehicle id="190" type="passenger" depart="95.45">
        <route edges="bottom0A0.250.00"/>
    </vehicle>
    <vehicle id="193" type="passenger" depart="96.70">
        <route edges="right0A0 right0A0.250.00 A0top0"/>
    </vehicle>
    <vehicle id="194" type="passenger" depart="96.80">
        <route edges="top0A0 top0A0.250.00 A0bottom0"/>
    </vehicle>
    <vehicle id="196" type="passenger" depart="97.65">
        <route edges="bottom0A0.250.00 A0left0"/>
    </vehicle>
    <vehicle id="199" type="passenger" depart="97.95">
        <route edges="bottom0A0.250.00 A0left0"/>
    </vehicle>
    <vehicle id="200" type="passenger" depart="98.30">
        <route edges="top0A0 top0A0.250.00"/>
    </vehicle>
    <vehicle id="201" type="passenger" depart="98.85">
        <route edges="right0A0.250.00 A0left0"/>
    </vehicle>
    <vehicle id="203" type="passenger" depart="99.20">
        <route edges="left0A0 left0A0.250.00 A0bottom0"/>
    </vehicle>
    <vehicle id="204" type="passenger" depart="99.25">
        <route edges="bottom0A0 bottom0A0.250.00 A0left0"/>
    </vehicle>
    <vehicle id="205" type="passenger" depart="99.35">
        <route edges="left0A0 left0A0.250.00"/>
    </vehicle>
    <vehicle id="209" type="passenger" depart="100.20">
        <route edges="left0A0 left0A0.250.00 A0top0"/>
    </vehicle>
    <vehicle id="210" type="passenger" depart="100.65">
        <route edges="bottom0A0 bottom0A0.250.00"/>
    </vehicle>
    <vehicle id="211" type="passenger" depart="101.35">
        <route edges="top0A0 top0A0.250.00 A0left0"/>
    </vehicle>
    <vehicle id="212" type="passenger" depart="101.65">
        <route edges="right0A0 right0A0.250.00"/>
    </vehicle>
    <vehicle id="213" type="passenger" depart="101.70">
        <route edges="right0A0 right0A0.250.00"/>
    </vehicle>
    <vehicle id="214" type="passenger" depart="101.80">
        <route edges="left0A0.250.00 A0top0"/>
    </vehicle>
    <vehicle id="217" type="passenger" depart="104.65">
        <route edges="right0A0.250.00 A0top0"/>
    </vehicle>
    <vehicle id="218" type="passenger" depart="104.70">
        <route edges="top0A0.250.00"/>
    </vehicle>
    <vehicle id="219" type="passenger" depart="104.85">
        <route edges="top0A0 top0A0.250.00 A0left0"/>
    </vehicle>
    <vehicle id="220" type="passenger" depart="105.10">
        <route edges="left0A0 left0A0.250.00 A0right0"/>
    </vehicle>
    <vehicle id="224" type="passenger" depart="108.15">
        <route edges="bottom0A0.250.00 A0right0"/>
    </vehicle>
    <vehicle id="225" type="passenger" depart="108.65">
        <route edges="right0A0.250.00"/>
    </vehicle>
    <vehicle id="226" type="passenger" depart="109.10">
        <route edges="bottom0A0 bottom0A0.250.00 A0right0"/>
    </vehicle>
    <vehicle id="227" type="passenger" depart="109.30">
        <route edges="left0A0.250.00 A0top0"/>
    </vehicle>
    <vehicle id="229" type="passenger" depart="110.05">
        <route edges="top0A0 top0A0.250.00 A0bottom0"/>
    </vehicle>
    <vehicle id="232" type="passenger" depart="111.00">
        <route edges="left0A0 left0A0.250.00"/>
    </vehicle>
    <vehicle id="233" type="passenger" depart="111.60">
        <route edges="left0A0 left0A0.250.00 A0bottom0"/>
    </vehicle>
    <vehicle id="235" type="passenger" depart="113.15">
        <route edges="right0A0.250.00 A0top0"/>
    </vehicle>
    <vehicle id="238" type="passenger" depart="118.35">
        <route edges="left0A0.250.00 A0top0"/>
    </vehicle>
    <vehicle id="239" type="passenger" depart="118.65">
        <route edges="top0A0.250.00 A0left0"/>
    </vehicle>
    <vehicle id="241" type="passenger" depart="119.75">
        <route edges="bottom0A0 bottom0A0.250.00 A0right0"/>
    </vehicle>
    <vehicle id="243" type="passenger" depart="120.70">
        <route edges="left0A0.250.00 A0bottom0"/>
    </vehicle>
    <vehicle id="247" type="passenger" depart="121.80">
        <route edges="top0A0 top0A0.250.00 A0left0"/>
    </vehicle>
    <vehicle id="248" type="passenger" depart="122.45">
        <route edges="bottom0A0 bottom0A0.250.00 A0right0"/>
    </vehicle>
    <vehicle id="249" type="passenger" depart="122.70">
        <route edges="right0A0.250.00"/>
    </vehicle>
    <vehicle id="250" type="passenger" depart="123.40">
        <route edges="top0A0 top0A0.250.00 A0left0"/>
    </vehicle>
    <vehicle id="251" type="passenger" depart="123.60">
        <route edges="top0A0.250.00"/>
    </vehicle>
    <vehicle id="254" type="passenger" depart="124.85">
        <route edges="left0A0.250.00 A0right0"/>
    </vehicle>
    <vehicle id="257" type="passenger" depart="126.30">
        <route edges="top0A0.250.00 A0right0"/>
    </vehicle>
    <vehicle id="259" type="passenger" depart="127.70">
        <route edges="left0A0.250.00 A0right0"/>
    </vehicle>
    <vehicle id="262" type="passenger" depart="128.60">
        <route edges="left0A0 left0A0.250.00"/>
    </vehicle>
    <vehicle id="263" type="passenger" depart="128.80">
        <route edges="left0A0 left0A0.250.00 A0bottom0"/>
    </vehicle>
    <vehicle id="265" type="passenger" depart="130.20">
        <route edges="right0A0.250.00 A0top0"/>
    </vehicle>
    <vehicle id="267" type="passenger" depart="130.75">
        <route edges="top0A0 top0A0.250.00 A0right0"/>
    </vehicle>
    <vehicle id="269" type="passenger" depart="131.45">
        <route edges="left0A0.250.00"/>
    </vehicle>
    <vehicle id="270" type="passenger" depart="131.90">
        <route edges="right0A0.250.00 A0bottom0"/>
    </vehicle>
    <vehicle id="272" type="passenger" depart="132.85">
        <route edges="right0A0.250.00 A0bottom0"/>
    </vehicle>
    <vehicle id="275" type="passenger" depart="135.35">
        <route edges="right0A0 right0A0.250.00"/>
    </vehicle>
    <vehicle id="279" type="passenger" depart="138.20">
        <route edges="left0A0.250.00 A0top0"/>
    </vehicle>
    <vehicle id="282" type="passenger" depart="139.15">
        <route edges="left0A0 left0A0.250.00"/>
    </vehicle>
    <vehicle id="284" type="passenger" depart="139.55">
        <route edges="right0A0.250.00 A0top0"/>
    </vehicle>
    <vehicle id="285" type="passenger" depart="140.25">
        <route edges="bottom0A0.250.00 A0right0"/>
    </vehicle>
    <vehicle id="286" type="passenger" depart="140.55">
        <route edges="top0A0 top0A0.250.00 A0left0"/>
    </vehicle>
    <vehicle id="287" type="passenger" depart="140.60">
        <route edges="bottom0A0.250.00 A0left0"/>
    </vehicle>
    <vehicle id="288" type="passenger" depart="141.45">
        <route edges="top0A0 top0A0.250.00 A0right0"/>
    </vehicle>
    <vehicle id="289" type="passenger" depart="141.45">
        <route edges="top0A0.250.00 A0bottom0"/>
    </vehicle>
    <vehicle id="292" type="passenger" depart="142.30">
        <route edges="bottom0A0.250.00 A0right0"/>
    </vehicle>
    <vehicle id="296" type="passenger" depart="143.00">
        <route edges="left0A0 left0A0.250.00 A0right0"/>
    </vehicle>
    <vehicle id="297" type="passenger" depart="143.10">
        <route edges="left0A0.250.00 A0right0"/>
    </vehicle>
    <vehicle id="298" type="passenger" depart="143.80">
        <route edges="right0A0.250.00"/>
    </vehicle>
    <vehicle id="299" type="passenger" depart="144.30">
        <route edges="left0A0.250.00 A0right0"/>
    </vehicle>
    <vehicle id="300" type="passenger" depart="144.40">
        <route edges="top0A0 top0A0.250.00 A0left0"/>
    </vehicle>
    <vehicle id="302" type="passenger" depart="144.75">
        <route edges="bottom0A0 bottom0A0.250.00 A0left0"/>
    </vehicle>
    <vehicle id="303" type="passenger" depart="145.20">
        <route edges="top0A0.250.00 A0left0"/>
    </vehicle>
    <vehicle id="306" type="passenger" depart="146.55">
        <route edges="bottom0A0 bottom0A0.250.00 A0left0"/>
    </vehicle>
    <vehicle id="307" type="passenger" depart="147.55">
        <route edges="left0A0 left0A0.250.00 A0right0"/>
    </vehicle>
    <vehicle id="308" type="passenger" depart="147.65">
        <route edges="left0A0 left0A0.250.00 A0bottom0"/>
    </vehicle>
    <vehicle id="310" type="passenger" depart="148.40">
        <route edges="bottom0A0.250.00 A0left0"/>
    </vehicle>
    <vehicle id="311" type="passenger" depart="148.80">
        <route edges="right0A0.250.00 A0top0"/>
    </vehicle>
    <vehicle id="315" type="passenger" depart="152.45">
        <route edges="top0A0 top0A0.250.00 A0bottom0"/>
    </vehicle>
    <vehicle id="321" type="passenger" depart="154.15">
        <route edges="bottom0A0.250.00 A0left0"/>
    </vehicle>
    <vehicle id="323" type="passenger" depart="154.50">
        <route edges="bottom0A0.250.00 A0top0"/>
    </vehicle>
    <vehicle id="325" type="passenger" depart="155.50">
        <route edges="left0A0.250.00 A0right0"/>
    </vehicle>
    <vehicle id="326" type="passenger" depart="155.60">
        <route edges="left0A0 left0A0.250.00 A0right0"/>
    </vehicle>
    <vehicle id="327" type="passenger" depart="156.10">
        <route edges="bottom0A0 bottom0A0.250.00 A0top0"/>
    </vehicle>
    <vehicle id="328" type="passenger" depart="156.75">
        <route edges="right0A0 right0A0.250.00 A0top0"/>
    </vehicle>
    <vehicle id="330" type="passenger" depart="157.55">
        <route edges="left0A0 left0A0.250.00 A0right0"/>
    </vehicle>
    <vehicle id="332" type="passenger" depart="158.40">
        <route edges="right0A0 right0A0.250.00 A0left0"/>
    </vehicle>
    <vehicle id="333" type="passenger" depart="158.75">
        <route edges="top0A0 top0A0.250.00 A0bottom0"/>
    </vehicle>
    <vehicle id="334" type="passenger" depart="158.90">
        <route edges="left0A0 left0A0.250.00"/>
    </vehicle>
    <vehicle id="335" type="passenger" depart="159.10">
        <route edges="right0A0.250.00 A0top0"/>
    </vehicle>
    <vehicle id="336" type="passenger" depart="159.90">
        <route edges="bottom0A0 bottom0A0.250.00 A0left0"/>
    </vehicle>
    <vehicle id="337" type="passenger" depart="160.05">
        <route edges="top0A0.250.00 A0right0"/>
    </vehicle>
    <vehicle id="339" type="passenger" depart="161.85">
        <route edges="right0A0 right0A0.250.00 A0top0"/>
    </vehicle>
    <vehicle id="340" type="passenger" depart="162.00">
        <route edges="right0A0.250.00"/>
    </vehicle>
    <vehicle id="341" type="passenger" depart="162.00">
        <route edges="right0A0.250.00 A0bottom0"/>
    </vehicle>
    <vehicle id="343" type="passenger" depart="162.80">
        <route edges="bottom0A0 bottom0A0.250.00 A0top0"/>
    </vehicle>
    <vehicle id="345" type="passenger" depart="163.45">
        <route edges="right0A0.250.00"/>
    </vehicle>
    <vehicle id="346" type="passenger" depart="164.35">
        <route edges="left0A0 left0A0.250.00 A0top0"/>
    </vehicle>
    <vehicle id="347" type="passenger" depart="165.85">
        <route edges="bottom0A0 bottom0A0.250.00 A0right0"/>
    </vehicle>
    <vehicle id="350" type="passenger" depart="167.20">
        <route edges="right0A0 right0A0.250.00 A0bottom0"/>
    </vehicle>
    <vehicle id="351" type="passenger" depart="167.40">
        <route edges="right0A0.250.00 A0top0"/>
    </vehicle>
    <vehicle id="352" type="passenger" depart="168.00">
        <route edges="left0A0.250.00 A0top0"/>
    </vehicle>
    <vehicle id="356" type="passenger" depart="170.15">
        <route edges="right0A0 right0A0.250.00 A0bottom0"/>
    </vehicle>
    <vehicle id="357" type="passenger" depart="170.15">
        <route edges="top0A0.250.00 A0bottom0"/>
    </vehicle>
    <vehicle id="359" type="passenger" depart="170.85">
        <route edges="top0A0.250.00"/>
    </vehicle>
    <vehicle id="362" type="passenger" depart="171.25">
        <route edges="left0A0 left0A0.250.00 A0bottom0"/>
    </vehicle>
    <vehicle id="363" type="passenger" depart="172.50">
        <route edges="top0A0 top0A0.250.00 A0left0"/>
    </vehicle>
    <vehicle id="364" type="passenger" depart="172.85">
        <route edges="left0A0 left0A0.250.00 A0bottom0"/>
    </vehicle>
    <vehicle id="365" type="passenger" depart="172.95">
        <route edges="left0A0.250.00"/>
    </vehicle>
    <vehicle id="366" type="passenger" depart="173.25">
        <route edges="right0A0.250.00 A0left0"/>
    </vehicle>
    <vehicle id="367" type="passenger" depart="173.85">
        <route edges="top0A0 top0A0.250.00 A0right0"/>
    </vehicle>
    <vehicle id="368" type="passenger" depart="175.05">
        <route edges="top0A0.250.00"/>
    </vehicle>
    <vehicle id="370" type="passenger" depart="175.35">
        <route edges="right0A0 right0A0.250.00 A0bottom0"/>
    </vehicle>
    <vehicle id="375" type="passenger" depart="177.80">
        <route edges="top0A0.250.00 A0bottom0"/>
    </vehicle>
    <vehicle id="377" type="passenger" depart="178.15">
        <route edges="left0A0 left0A0.250.00"/>
    </vehicle>
    <vehicle id="378" type="passenger" depart="178.85">
        <route edges="right0A0 right0A0.250.00 A0top0"/>
    </vehicle>
    <vehicle id="379" type="passenger" depart="179.10">
        <route edges="bottom0A0 bottom0A0.250.00 A0left0"/>
    </vehicle>
    <vehicle id="383" type="passenger" depart="180.80">
        <route edges="bottom0A0.250.00"/>
    </vehicle>
    <vehicle id="385" type="passenger" depart="181.55">
        <route edges="left0A0 left0A0.250.00 A0bottom0"/>
    </vehicle>
    <vehicle id="386" type="passenger" depart="182.15">
        <route edges="left0A0.250.00 A0bottom0"/>
    </vehicle>
    <vehicle id="388" type="passenger" depart="182.75">
        <route edges="left0A0 left0A0.250.00 A0bottom0"/>
    </vehicle>
    <vehicle id="391" type="passenger" depart="183.25">
        <route edges="left0A0 left0A0.250.00"/>
    </vehicle>
    <vehicle id="393" type="passenger" depart="184.85">
        <route edges="bottom0A0 bottom0A0.250.00 A0right0"/>
    </vehicle>
    <vehicle id="394" type="passenger" depart="185.10">
        <route edges="bottom0A0 bottom0A0.250.00 A0left0"/>
    </vehicle>
    <vehicle id="397" type="passenger" depart="186.25">
        <route edges="right0A0.250.00 A0left0"/>
    </vehicle>
    <vehicle id="399" type="passenger" depart="186.80">
        <route edges="bottom0A0.250.00"/>
    </vehicle>
    <vehicle id="402" type="passenger" depart="188.60">
        <route edges="bottom0A0.250.00 A0right0"/>
    </vehicle>
    <vehicle id="404" type="passenger" depart="190.05">
        <route edges="top0A0 top0A0.250.00 A0bottom0"/>
    </vehicle>
    <vehicle id="405" type="passenger" depart="190.35">
        <route edges="left0A0.250.00 A0right0"/>
    </vehicle>
    <vehicle id="407" type="passenger" depart="190.85">
        <route edges="bottom0A0.250.00 A0top0"/>
    </vehicle>
    <vehicle id="408" type="passenger" depart="191.10">
        <route edges="top0A0.250.00 A0bottom0"/>
    </vehicle>
    <vehicle id="409" type="passenger" depart="191.30">
        <route edges="left0A0 left0A0.250.00 A0right0"/>
    </vehicle>
    <vehicle id="410" type="passenger" depart="191.95">
        <route edges="left0A0 left0A0.250.00"/>
    </vehicle>
    <vehicle id="412" type="passenger" depart="193.00">
        <route edges="right0A0.250.00 A0left0"/>
    </vehicle>
    <vehicle id="413" type="passenger" depart="193.40">
        <route edges="top0A0 top0A0.250.00"/>
    </vehicle>
    <vehicle id="416" type="passenger" depart="194.00">
        <route edges="top0A0.250.00 A0right0"/>
    </vehicle>
    <vehicle id="419" type="passenger" depart="194.50">
        <route edges="right0A0.250.00"/>
    </vehicle>
    <vehicle id="421" type="passenger" depart="195.25">
        <route edges="right0A0 right0A0.250.00 A0bottom0"/>
    </vehicle>
    <vehicle id="424" type="passenger" depart="195.60">
        <route edges="left0A0.250.00 A0top0"/>
    </vehicle>
    <vehicle id="428" type="passenger" depart="197.80">
        <route edges="right0A0.250.00 A0top0"/>
    </vehicle>
    <vehicle id="429" type="passenger" depart="198.45">
        <route edges="top0A0.250.00 A0left0"/>
    </vehicle>
    <vehicle id="430" type="passenger" depart="198.50">
        <route edges="left0A0 left0A0.250.00"/>
    </vehicle>