<?xml version="1.0" encoding="UTF-8"?>

<!-- generated on 2023-04-26 16:56:48.582051 by randomTrips.py UNKNOWN
<configuration>
    <begin value="0"/>
    <end value="900"/>
    <insertion-rate value="8000.0"/>
    <net-file value="/home/franky3er/Documents/code/HieraGLight/scenarios/grid/1x1-500m/train/35-scenario/network.net.xml"/>
    <random value="True"/>
    <random-depart value="True"/>
    <route-file value="/home/franky3er/Documents/code/HieraGLight/scenarios/grid/1x1-500m/train/35-scenario/routes.rou.xml"/>
    <seed value="35"/>
    <output-trip-file value="/home/franky3er/Documents/code/HieraGLight/scenarios/grid/1x1-500m/train/35-scenario/trips.trips.xml"/>
    <vehicle-class value="passenger"/>
</configuration>
-->

<!-- generated on 2023-04-26 16:56:48 by Eclipse SUMO duarouter Version 1.16.0
<configuration xmlns:xsi="http://www.w3.org/2001/XMLSchema-instance" xsi:noNamespaceSchemaLocation="http://sumo.dlr.de/xsd/duarouterConfiguration.xsd">

    <input>
        <net-file value="/home/franky3er/Documents/code/HieraGLight/scenarios/grid/1x1-500m/train/35-scenario/network.net.xml"/>
        <route-files value="/home/franky3er/Documents/code/HieraGLight/scenarios/grid/1x1-500m/train/35-scenario/trips.trips.xml"/>
    </input>

    <output>
        <output-file value="/home/franky3er/Documents/code/HieraGLight/scenarios/grid/1x1-500m/train/35-scenario/routes.rou.xml"/>
        <alternatives-output value="NUL"/>
    </output>

    <time>
        <begin value="0"/>
        <end value="900"/>
    </time>

    <report>
        <no-warnings value="true"/>
        <ignore-errors value="true"/>
        <no-step-log value="true"/>
    </report>

</configuration>
-->

<routes xmlns:xsi="http://www.w3.org/2001/XMLSchema-instance" xsi:noNamespaceSchemaLocation="http://sumo.dlr.de/xsd/routes_file.xsd">
    <vType id="passenger" vClass="passenger"/>
    <vehicle id="0" type="passenger" depart="0.45">
        <route edges="right0A0.250.00 A0bottom0"/>
    </vehicle>
    <vehicle id="2" type="passenger" depart="0.55">
        <route edges="bottom0A0 bottom0A0.250.00"/>
    </vehicle>
    <vehicle id="3" type="passenger" depart="0.60">
        <route edges="bottom0A0.250.00 A0right0"/>
    </vehicle>
    <vehicle id="5" type="passenger" depart="1.20">
        <route edges="right0A0 right0A0.250.00"/>
    </vehicle>
    <vehicle id="6" type="passenger" depart="1.80">
        <route edges="right0A0 right0A0.250.00 A0top0"/>
    </vehicle>
    <vehicle id="7" type="passenger" depart="2.60">
        <route edges="right0A0.250.00 A0top0"/>
    </vehicle>
    <vehicle id="10" type="passenger" depart="3.65">
        <route edges="right0A0.250.00 A0top0"/>
    </vehicle>
    <vehicle id="13" type="passenger" depart="4.00">
        <route edges="bottom0A0 bottom0A0.250.00 A0right0"/>
    </vehicle>
    <vehicle id="14" type="passenger" depart="4.10">
        <route edges="right0A0 right0A0.250.00 A0top0"/>
    </vehicle>
    <vehicle id="17" type="passenger" depart="5.20">
        <route edges="left0A0.250.00"/>
    </vehicle>
    <vehicle id="19" type="passenger" depart="5.55">
        <route edges="right0A0 right0A0.250.00 A0left0"/>
    </vehicle>
    <vehicle id="20" type="passenger" depart="6.35">
        <route edges="right0A0 right0A0.250.00 A0left0"/>
    </vehicle>
    <vehicle id="21" type="passenger" depart="8.55">
        <route edges="top0A0 top0A0.250.00 A0left0"/>
    </vehicle>
    <vehicle id="22" type="passenger" depart="8.70">
        <route edges="top0A0.250.00 A0right0"/>
    </vehicle>
    <vehicle id="23" type="passenger" depart="8.90">
        <route edges="right0A0.250.00 A0bottom0"/>
    </vehicle>
    <vehicle id="24" type="passenger" depart="8.90">
        <route edges="bottom0A0 bottom0A0.250.00"/>
    </vehicle>
    <vehicle id="25" type="passenger" depart="9.00">
        <route edges="right0A0 right0A0.250.00 A0top0"/>
    </vehicle>
    <vehicle id="27" type="passenger" depart="9.65">
        <route edges="right0A0.250.00 A0bottom0"/>
    </vehicle>
    <vehicle id="28" type="passenger" depart="9.75">
        <route edges="left0A0.250.00 A0bottom0"/>
    </vehicle>
    <vehicle id="31" type="passenger" depart="11.20">
        <route edges="left0A0 left0A0.250.00 A0right0"/>
    </vehicle>
    <vehicle id="33" type="passenger" depart="12.10">
        <route edges="top0A0 top0A0.250.00 A0left0"/>
    </vehicle>
    <vehicle id="35" type="passenger" depart="12.55">
        <route edges="left0A0 left0A0.250.00 A0bottom0"/>
    </vehicle>
    <vehicle id="36" type="passenger" depart="12.85">
        <route edges="top0A0.250.00"/>
    </vehicle>
    <vehicle id="37" type="passenger" depart="13.40">
        <route edges="right0A0 right0A0.250.00 A0left0"/>
    </vehicle>
    <vehicle id="41" type="passenger" depart="14.75">
        <route edges="left0A0.250.00"/>
    </vehicle>
    <vehicle id="43" type="passenger" depart="15.75">
        <route edges="left0A0.250.00 A0bottom0"/>
    </vehicle>
    <vehicle id="46" type="passenger" depart="17.25">
        <route edges="bottom0A0.250.00 A0top0"/>
    </vehicle>
    <vehicle id="48" type="passenger" depart="17.45">
        <route edges="right0A0 right0A0.250.00"/>
    </vehicle>
    <vehicle id="49" type="passenger" depart="17.75">
        <route edges="top0A0.250.00 A0left0"/>
    </vehicle>
    <vehicle id="51" type="passenger" depart="18.95">
        <route edges="left0A0.250.00 A0bottom0"/>
    </vehicle>
    <vehicle id="57" type="passenger" depart="21.70">
        <route edges="top0A0 top0A0.250.00 A0bottom0"/>
    </vehicle>
    <vehicle id="60" type="passenger" depart="24.10">
        <route edges="left0A0.250.00 A0top0"/>
    </vehicle>
    <vehicle id="61" type="passenger" depart="25.30">
        <route edges="right0A0 right0A0.250.00 A0top0"/>
    </vehicle>
    <vehicle id="62" type="passenger" depart="25.45">
        <route edges="right0A0 right0A0.250.00"/>
    </vehicle>
    <vehicle id="63" type="passenger" depart="25.65">
        <route edges="left0A0 left0A0.250.00 A0bottom0"/>
    </vehicle>
    <vehicle id="69" type="passenger" depart="27.95">
        <route edges="top0A0.250.00 A0right0"/>
    </vehicle>
    <vehicle id="70" type="passenger" depart="28.50">
        <route edges="left0A0.250.00 A0right0"/>
    </vehicle>
    <vehicle id="71" type="passenger" depart="28.80">
        <route edges="top0A0.250.00 A0bottom0"/>
    </vehicle>
    <vehicle id="75" type="passenger" depart="32.60">
        <route edges="right0A0 right0A0.250.00"/>
    </vehicle>
    <vehicle id="76" type="passenger" depart="33.10">
        <route edges="bottom0A0.250.00 A0right0"/>
    </vehicle>
    <vehicle id="77" type="passenger" depart="33.75">
        <route edges="bottom0A0.250.00 A0top0"/>
    </vehicle>
    <vehicle id="86" type="passenger" depart="36.75">
        <route edges="bottom0A0 bottom0A0.250.00"/>
    </vehicle>
    <vehicle id="87" type="passenger" depart="37.20">
        <route edges="left0A0.250.00"/>
    </vehicle>
    <vehicle id="88" type="passenger" depart="37.60">
        <route edges="bottom0A0.250.00 A0top0"/>
    </vehicle>
    <vehicle id="90" type="passenger" depart="37.75">
        <route edges="bottom0A0 bottom0A0.250.00 A0top0"/>
    </vehicle>
    <vehicle id="92" type="passenger" depart="38.40">
        <route edges="bottom0A0 bottom0A0.250.00 A0right0"/>
    </vehicle>
    <vehicle id="94" type="passenger" depart="38.95">
        <route edges="bottom0A0.250.00 A0left0"/>
    </vehicle>
    <vehicle id="95" type="passenger" depart="39.00">
        <route edges="right0A0 right0A0.250.00"/>
    </vehicle>
    <vehicle id="96" type="passenger" depart="39.65">
        <route edges="right0A0.250.00 A0left0"/>
    </vehicle>
    <vehicle id="101" type="passenger" depart="43.25">
        <route edges="right0A0.250.00"/>
    </vehicle>
    <vehicle id="102" type="passenger" depart="44.15">
        <route edges="left0A0.250.00 A0bottom0"/>
    </vehicle>
    <vehicle id="103" type="passenger" depart="44.95">
        <route edges="right0A0.250.00 A0bottom0"/>
    </vehicle>
    <vehicle id="104" type="passenger" depart="45.20">
        <route edges="left0A0 left0A0.250.00"/>
    </vehicle>
    <vehicle id="105" type="passenger" depart="45.25">
        <route edges="left0A0.250.00 A0right0"/>
    </vehicle>
    <vehicle id="109" type="passenger" depart="46.85">
        <route edges="bottom0A0 bottom0A0.250.00 A0right0"/>
    </vehicle>
    <vehicle id="110" type="passenger" depart="47.10">
        <route edges="bottom0A0 bottom0A0.250.00 A0left0"/>
    </vehicle>
    <vehicle id="111" type="passenger" depart="47.15">
        <route edges="right0A0 right0A0.250.00 A0left0"/>
    </vehicle>
    <vehicle id="113" type="passenger" depart="47.80">
        <route edges="left0A0 left0A0.250.00 A0top0"/>
    </vehicle>
    <vehicle id="115" type="passenger" depart="48.55">
        <route edges="top0A0 top0A0.250.00"/>
    </vehicle>
    <vehicle id="116" type="passenger" depart="48.65">
        <route edges="bottom0A0.250.00 A0left0"/>
    </vehicle>
    <vehicle id="122" type="passenger" depart="54.25">
        <route edges="right0A0.250.00 A0left0"/>
    </vehicle>
    <vehicle id="123" type="passenger" depart="55.40">
        <route edges="left0A0 left0A0.250.00 A0right0"/>
    </vehicle>
    <vehicle id="124" type="passenger" depart="55.95">
        <route edges="bottom0A0.250.00"/>
    </vehicle>
    <vehicle id="125" type="passenger" depart="56.05">
        <route edges="bottom0A0.250.00 A0right0"/>
    </vehicle>
    <vehicle id="126" type="passenger" depart="56.35">
        <route edges="left0A0.250.00"/>
    </vehicle>
    <vehicle id="130" type="passenger" depart="57.05">
        <route edges="right0A0 right0A0.250.00"/>
    </vehicle>
    <vehicle id="133" type="passenger" depart="57.75">
        <route edges="left0A0.250.00"/>
    </vehicle>
    <vehicle id="135" type="passenger" depart="59.25">
        <route edges="left0A0.250.00 A0right0"/>
    </vehicle>
    <vehicle id="137" type="passenger" depart="60.50">
        <route edges="left0A0.250.00 A0top0"/>
    </vehicle>
    <vehicle id="138" type="passenger" depart="61.05">
        <route edges="top0A0.250.00 A0left0"/>
    </vehicle>
    <vehicle id="139" type="passenger" depart="62.00">
        <route edges="top0A0.250.00 A0left0"/>
    </vehicle>
    <vehicle id="140" type="passenger" depart="62.20">
        <route edges="right0A0.250.00"/>
    </vehicle>
    <vehicle id="141" type="passenger" depart="63.10">
        <route edges="left0A0 left0A0.250.00 A0bottom0"/>
    </vehicle>
    <vehicle id="144" type="passenger" depart="65.25">
        <route edges="bottom0A0 bottom0A0.250.00 A0top0"/>
    </vehicle>
    <vehicle id="147" type="passenger" depart="66.30">
        <route edges="right0A0 right0A0.250.00"/>
    </vehicle>
    <vehicle id="156" type="passenger" depart="70.70">
        <route edges="top0A0.250.00 A0left0"/>
    </vehicle>
    <vehicle id="157" type="passenger" depart="71.20">
        <route edges="top0A0 top0A0.250.00 A0left0"/>
    </vehicle>
    <vehicle id="158" type="passenger" depart="71.60">
        <route edges="bottom0A0.250.00"/>
    </vehicle>
    <vehicle id="162" type="passenger" depart="74.30">
        <route edges="top0A0.250.00 A0left0"/>
    </vehicle>
    <vehicle id="163" type="passenger" depart="74.70">
        <route edges="right0A0 right0A0.250.00 A0left0"/>
    </vehicle>
    <vehicle id="164" type="passenger" depart="75.50">
        <route edges="right0A0 right0A0.250.00 A0left0"/>
    </vehicle>
    <vehicle id="165" type="passenger" depart="76.75">
        <route edges="left0A0.250.00"/>
    </vehicle>
    <vehicle id="167" type="passenger" depart="77.15">
        <route edges="bottom0A0 bottom0A0.250.00"/>
    </vehicle>
    <vehicle id="169" type="passenger" depart="78.15">
        <route edges="bottom0A0 bottom0A0.250.00 A0right0"/>
    </vehicle>
    <vehicle id="170" type="passenger" depart="78.25">
        <route edges="bottom0A0.250.00"/>
    </vehicle>
    <vehicle id="171" type="passenger" depart="78.40">
        <route edges="right0A0.250.00 A0left0"/>
    </vehicle>
    <vehicle id="174" type="passenger" depart="79.90">
        <route edges="top0A0.250.00 A0left0"/>
    </vehicle>
    <vehicle id="176" type="passenger" depart="80.60">
        <route edges="left0A0 left0A0.250.00 A0bottom0"/>
    </vehicle>
    <vehicle id="178" type="passenger" depart="81.50">
        <route edges="right0A0 right0A0.250.00"/>
    </vehicle>
    <vehicle id="181" type="passenger" depart="84.10">
        <route edges="right0A0 right0A0.250.00"/>
    </vehicle>
    <vehicle id="183" type="passenger" depart="84.90">
        <route edges="bottom0A0.250.00 A0top0"/>
    </vehicle>
    <vehicle id="184" type="passenger" depart="85.65">
        <route edges="top0A0 top0A0.250.00 A0left0"/>
    </vehicle>
    <vehicle id="185" type="passenger" depart="85.85">
        <route edges="bottom0A0.250.00 A0top0"/>
    </vehicle>
    <vehicle id="186" type="passenger" depart="87.10">
        <route edges="top0A0 top0A0.250.00"/>
    </vehicle>
    <vehicle id="189" type="passenger" depart="87.50">
        <route edges="right0A0 right0A0.250.00 A0left0"/>
    </vehicle>
    <vehicle id="191" type="passenger" depart="87.80">
        <route edges="bottom0A0 bottom0A0.250.00 A0right0"/>
    </vehicle>
    <vehicle id="192" type="passenger" depart="88.00">
        <route edges="bottom0A0.250.00 A0right0"/>
    </vehicle>
    <vehicle id="193" type="passenger" depart="88.00">
        <route edges="top0A0.250.00 A0right0"/>
    </vehicle>
    <vehicle id="194" type="passenger" depart="88.75">
        <route edges="left0A0.250.00"/>
    </vehicle>
    <vehicle id="196" type="passenger" depart="89.10">
        <route edges="bottom0A0.250.00 A0right0"/>
    </vehicle>
    <vehicle id="197" type="passenger" depart="89.60">
        <route edges="left0A0.250.00"/>
    </vehicle>
    <vehicle id="198" type="passenger" depart="89.95">
        <route edges="bottom0A0.250.00 A0top0"/>
    </vehicle>
    <vehicle id="199" type="passenger" depart="90.00">
        <route edges="right0A0.250.00"/>
    </vehicle>
    <vehicle id="201" type="passenger" depart="90.40">
        <route edges="right0A0.250.00 A0bottom0"/>
    </vehicle>
    <vehicle id="203" type="passenger" depart="91.50">
        <route edges="right0A0 right0A0.250.00 A0left0"/>
    </vehicle>
    <vehicle id="206" type="passenger" depart="91.95">
        <route edges="right0A0.250.00 A0left0"/>
    </vehicle>
    <vehicle id="210" type="passenger" depart="93.60">
        <route edges="bottom0A0 bottom0A0.250.00 A0left0"/>
    </vehicle>
    <vehicle id="211" type="passenger" depart="93.65">
        <route edges="left0A0 left0A0.250.00"/>
    </vehicle>
    <vehicle id="212" type="passenger" depart="93.70">
        <route edges="bottom0A0 bottom0A0.250.00 A0top0"/>
    </vehicle>
    <vehicle id="214" type="passenger" depart="96.75">
        <route edges="bottom0A0.250.00 A0left0"/>
    </vehicle>
    <vehicle id="215" type="passenger" depart="96.80">
        <route edges="left0A0.250.00 A0top0"/>
    </vehicle>
    <vehicle id="219" type="passenger" depart="98.35">
        <route edges="bottom0A0.250.00 A0right0"/>
    </vehicle>
    <vehicle id="220" type="passenger" depart="99.85">
        <route edges="left0A0 left0A0.250.00 A0right0"/>
    </vehicle>
    <vehicle id="224" type="passenger" depart="101.00">
        <route edges="left0A0 left0A0.250.00"/>
    </vehicle>
    <vehicle id="226" type="passenger" depart="101.95">
        <route edges="top0A0.250.00 A0right0"/>
    </vehicle>
    <vehicle id="229" type="passenger" depart="104.10">
        <route edges="left0A0.250.00 A0right0"/>
    </vehicle>
    <vehicle id="234" type="passenger" depart="105.30">
        <route edges="top0A0.250.00 A0right0"/>
    </vehicle>
    <vehicle id="235" type="passenger" depart="105.50">
        <route edges="right0A0.250.00 A0bottom0"/>
    </vehicle>
    <vehicle id="239" type="passenger" depart="106.95">
        <route edges="top0A0.250.00 A0bottom0"/>
    </vehicle>
    <vehicle id="245" type="passenger" depart="109.70">
        <route edges="left0A0 left0A0.250.00 A0top0"/>
    </vehicle>
    <vehicle id="249" type="passenger" depart="111.50">
        <route edges="right0A0 right0A0.250.00"/>
    </vehicle>
    <vehicle id="251" type="passenger" depart="112.45">
        <route edges="bottom0A0 bottom0A0.250.00 A0right0"/>
    </vehicle>
    <vehicle id="253" type="passenger" depart="112.90">
        <route edges="left0A0 left0A0.250.00 A0right0"/>
    </vehicle>
    <vehicle id="256" type="passenger" depart="115.00">
        <route edges="left0A0 left0A0.250.00"/>
    </vehicle>
    <vehicle id="257" type="passenger" depart="115.95">
        <route edges="right0A0.250.00 A0left0"/>
    </vehicle>
    <vehicle id="262" type="passenger" depart="116.55">
        <route edges="left0A0 left0A0.250.00 A0right0"/>
    </vehicle>
    <vehicle id="263" type="passenger" depart="116.55">
        <route edges="bottom0A0.250.00"/>
    </vehicle>
    <vehicle id="266" type="passenger" depart="118.20">
        <route edges="top0A0.250.00"/>
    </vehicle>
    <vehicle id="272" type="passenger" depart="122.00">
        <route edges="left0A0 left0A0.250.00 A0right0"/>
    </vehicle>
    <vehicle id="274" type="passenger" depart="122.75">
        <route edges="left0A0.250.00 A0right0"/>
    </vehicle>
    <vehicle id="283" type="passenger" depart="126.80">
        <route edges="bottom0A0 bottom0A0.250.00"/>
    </vehicle>
    <vehicle id="286" type="passenger" depart="127.55">
        <route edges="top0A0.250.00 A0right0"/>
    </vehicle>
    <vehicle id="287" type="passenger" depart="128.90">
        <route edges="top0A0.250.00 A0bottom0"/>
    </vehicle>
    <vehicle id="288" type="passenger" depart="129.55">
        <route edges="left0A0 left0A0.250.00"/>
    </vehicle>
    <vehicle id="289" type="passenger" depart="129.70">
        <route edges="left0A0 left0A0.250.00 A0right0"/>
    </vehicle>
    <vehicle id="292" type="passenger" depart="130.35">
        <route edges="right0A0 right0A0.250.00 A0bottom0"/>
    </vehicle>
    <vehicle id="293" type="passenger" depart="131.05">
        <route edges="right0A0 right0A0.250.00"/>
    </vehicle>
    <vehicle id="295" type="passenger" depart="133.25">
        <route edges="left0A0.250.00 A0top0"/>
    </vehicle>
    <vehicle id="296" type="passenger" depart="134.35">
        <route edges="left0A0.250.00 A0top0"/>
    </vehicle>
    <vehicle id="297" type="passenger" depart="134.55">
        <route edges="top0A0 top0A0.250.00 A0bottom0"/>
    </vehicle>
    <vehicle id="299" type="passenger" depart="134.65">
        <route edges="left0A0.250.00 A0right0"/>
    </vehicle>
    <vehicle id="305" type="passenger" depart="136.50">
        <route edges="right0A0 right0A0.250.00"/>
    </vehicle>
    <vehicle id="306" type="passenger" depart="136.85">
        <route edges="right0A0.250.00 A0bottom0"/>
    </vehicle>
    <vehicle id="308" type="passenger" depart="139.85">
        <route edges="top0A0.250.00"/>
    </vehicle>
    <vehicle id="309" type="passenger" depart="141.05">
        <route edges="left0A0 left0A0.250.00 A0top0"/>
    </vehicle>
    <vehicle id="310" type="passenger" depart="141.45">
        <route edges="bottom0A0.250.00 A0top0"/>
    </vehicle>
    <vehicle id="311" type="passenger" depart="143.35">
        <route edges="right0A0.250.00 A0left0"/>
    </vehicle>
    <vehicle id="314" type="passenger" depart="143.70">
        <route edges="right0A0.250.00 A0left0"/>
    </vehicle>
    <vehicle id="316" type="passenger" depart="144.40">
        <route edges="bottom0A0.250.00 A0right0"/>
    </vehicle>
    <vehicle id="319" type="passenger" depart="146.05">
        <route edges="top0A0.250.00 A0bottom0"/>
    </vehicle>
    <vehicle id="326" type="passenger" depart="149.95">
        <route edges="right0A0.250.00 A0bottom0"/>
    </vehicle>
    <vehicle id="328" type="passenger" depart="150.65">
        <route edges="left0A0 left0A0.250.00"/>
    </vehicle>
    <vehicle id="333" type="passenger" depart="155.30">
        <route edges="top0A0 top0A0.250.00 A0bottom0"/>
    </vehicle>
    <vehicle id="334" type="passenger" depart="155.35">
        <route edges="top0A0.250.00 A0bottom0"/>
    </vehicle>
    <vehicle id="335" type="passenger" depart="155.40">
        <route edges="top0A0.250.00 A0right0"/>
    </vehicle>
    <vehicle id="336" type="passenger" depart="155.55">
        <route edges="left0A0.250.00 A0right0"/>
    </vehicle>
    <vehicle id="338" type="passenger" depart="156.00">
        <route edges="right0A0.250.00 A0left0"/>
    </vehicle>
    <vehicle id="340" type="passenger" depart="156.80">
        <route edges="left0A0.250.00"/>
    </vehicle>
    <vehicle id="341" type="passenger" depart="156.95">
        <route edges="left0A0.250.00 A0bottom0"/>
    </vehicle>
    <vehicle id="342" type="passenger" depart="157.30">
        <route edges="right0A0 right0A0.250.00"/>
    </vehicle>
    <vehicle id="343" type="passenger" depart="157.40">
        <route edges="left0A0 left0A0.250.00 A0right0"/>
    </vehicle>
    <vehicle id="345" type="passenger" depart="157.80">
        <route edges="top0A0.250.00 A0bottom0"/>
    </vehicle>
    <vehicle id="346" type="passenger" depart="157.90">
        <route edges="top0A0 top0A0.250.00 A0bottom0"/>
    </vehicle>
    <vehicle id="349" type="passenger" depart="158.60">
        <route edges="top0A0 top0A0.250.00 A0bottom0"/>
    </vehicle>
    <vehicle id="351" type="passenger" depart="160.30">
        <route edges="right0A0 right0A0.250.00 A0left0"/>
    </vehicle>
    <vehicle id="358" type="passenger" depart="163.10">
        <route edges="top0A0 top0A0.250.00 A0right0"/>
    </vehicle>
    <vehicle id="359" type="passenger" depart="163.30">
        <route edges="left0A0.250.00 A0right0"/>
    </vehicle>
    <vehicle id="361" type="passenger" depart="163.90">
        <route edges="left0A0.250.00 A0right0"/>
    </vehicle>
    <vehicle id="362" type="passenger" depart="164.10">
        <route edges="bottom0A0 bottom0A0.250.00 A0left0"/>
    </vehicle>
    <vehicle id="364" type="passenger" depart="164.40">
        <route edges="left0A0.250.00"/>
    </vehicle>
    <vehicle id="368" type="passenger" depart="166.35">
        <route edges="right0A0.250.00 A0left0"/>
    </vehicle>
    <vehicle id="369" type="passenger" depart="166.95">
        <route edges="right0A0 right0A0.250.00"/>
    </vehicle>
    <vehicle id="371" type="passenger" depart="167.25">
        <route edges="top0A0 top0A0.250.00 A0right0"/>
    </vehicle>
    <vehicle id="372" type="passenger" depart="168.10">
        <route edges="top0A0.250.00 A0right0"/>
    </vehicle>
    <vehicle id="373" type="passenger" depart="168.10">
        <route edges="bottom0A0 bottom0A0.250.00"/>
    </vehicle>
    <vehicle id="374" type="passenger" depart="168.25">
        <route edges="bottom0A0 bottom0A0.250.00 A0top0"/>
    </vehicle>
    <vehicle id="375" type="passenger" depart="169.30">
        <route edges="top0A0 top0A0.250.00 A0bottom0"/>
    </vehicle>
    <vehicle id="376" type="passenger" depart="169.60">
        <route edges="bottom0A0 bottom0A0.250.00 A0top0"/>
    </vehicle>
    <vehicle id="378" type="passenger" depart="169.80">
        <route edges="right0A0 right0A0.250.00"/>
    </vehicle>
    <vehicle id="379" type="passenger" depart="169.85">
        <route edges="right0A0 right0A0.250.00"/>
    </vehicle>
    <vehicle id="383" type="passenger" depart="171.25">
        <route edges="bottom0A0 bottom0A0.250.00 A0left0"/>
    </vehicle>
    <vehicle id="384" type="passenger" depart="172.15">
        <route edges="right0A0.250.00 A0bottom0"/>
    </vehicle>
    <vehicle id="386" type="passenger" depart="173.70">
        <route edges="left0A0 left0A0.250.00 A0right0"/>
    </vehicle>
    <vehicle id="387" type="passenger" depart="174.25">
        <route edges="right0A0 right0A0.250.00"/>
    </vehicle>
    <vehicle id="388" type="passenger" depart="174.40">
        <route edges="left0A0.250.00"/>
    </vehicle>
    <vehicle id="389" type="passenger" depart="174.75">
        <route edges="top0A0 top0A0.250.00 A0right0"/>
    </vehicle>
    <vehicle id="390" type="passenger" depart="175.10">
        <route edges="bottom0A0.250.00 A0right0"/>
    </vehicle>
    <vehicle id="391" type="passenger" depart="175.55">
        <route edges="bottom0A0.250.00"/>
    </vehicle>
    <vehicle id="392" type="passenger" depart="175.85">
        <route edges="right0A0 right0A0.250.00 A0top0"/>
    </vehicle>
    <vehicle id="393" type="passenger" depart="176.35">
        <route edges="bottom0A0 bottom0A0.250.00 A0left0"/>
    </vehicle>
    <vehicle id="395" type="passenger" depart="178.20">
        <route edges="left0A0 left0A0.250.00 A0top0"/>
    </vehicle>
    <vehicle id="396" type="passenger" depart="178.65">
        <route edges="bottom0A0.250.00 A0right0"/>
    </vehicle>
    <vehicle id="397" type="passenger" depart="178.70">
        <route edges="bottom0A0.250.00"/>
    </vehicle>
    <vehicle id="399" type="passenger" depart="179.40">
        <route edges="right0A0 right0A0.250.00 A0bottom0"/>
    </vehicle>
    <vehicle id="400" type="passenger" depart="179.80">
        <route edges="top0A0 top0A0.250.00 A0right0"/>
    </vehicle>
    <vehicle id="401" type="passenger" depart="180.10">
        <route edges="right0A0 right0A0.250.00 A0bottom0"/>
    </vehicle>
    <vehicle id="404" type="passenger" depart="181.15">
        <route edges="bottom0A0 bottom0A0.250.00 A0right0"/>
    </vehicle>
    <vehicle id="406" type="passenger" depart="181.80">
        <route edges="top0A0.250.00 A0right0"/>
    </vehicle>
    <vehicle id="408" type="passenger" depart="183.50">
        <route edges="left0A0.250.00 A0right0"/>
    </vehicle>
    <vehicle id="409" type="passenger" depart="185.55">
        <route edges="left0A0 left0A0.250.00"/>
    </vehicle>
    <vehicle id="413" type="passenger" depart="189.00">
        <route edges="bottom0A0 bottom0A0.250.00 A0right0"/>
    </vehicle>
    <vehicle id="414" type="passenger" depart="189.80">
        <route edges="bottom0A0 bottom0A0.250.00"/>
    </vehicle>
    <vehicle id="415" type="passenger" depart="190.65">
        <route edges="left0A0 left0A0.250.00 A0top0"/>
    </vehicle>
    <vehicle id="417" type="passenger" depart="190.80">
        <route edges="bottom0A0.250.00 A0top0"/>
    </vehicle>
    <vehicle id="418" type="passenger" depart="190.95">
        <route edges="right0A0 right0A0.250.00 A0bottom0"/>
    </vehicle>
    <vehicle id="421" type="passenger" depart="191.45">
        <route edges="right0A0 right0A0.250.00 A0top0"/>
    </vehicle>
    <vehicle id="422" type="passenger" depart="192.10">
        <route edges="bottom0A0 bottom0A0.250.00 A0left0"/>
    </vehicle>
    <vehicle id="423" type="passenger" depart="193.00">
        <route edges="right0A0 right0A0.250.00"/>
    </vehicle>
    <vehicle id="424" type="passenger" depart="193.40">
        <route edges="left0A0 left0A0.250.00 A0right0"/>
    </vehicle>
    <vehicle id="425" type="passenger" depart="193.70">
        <route edges="top0A0.250.00 A0bottom0"/>
    </vehicle>
    <vehicle id="426" type="passenger" depart="194.05">
        <route edges="top0A0 top0A0.250.00"/>
    </vehicle>
    <vehicle id="428" type="passenger" depart="194.30">
        <route edges="left0A0 left0A0.250.00 A0right0"/>
    </vehicle>
    <vehicle id="429" type="passenger" depart="195.15">
        <route edges="top0A0 top0A0.250.00 A0right0"/>
    </vehicle>
    <vehicle id="430" type="passenger" depart="196.45">
        <route edges="left0A0.250.00 A0bottom0"/>
    </vehicle>
    <vehicle id="437" type="passenger" depart="197.50">
        <route edges="right0A0.250.00"/>
    </vehicle>
    <vehicle id="438" type="passenger" depart="197.60">
        <route edges="bottom0A0 bottom0A0.250.00 A0left0"/>
    </vehicle>
    <vehicle id="439" type="passenger" depart="197.95">
        <route edges="left0A0 left0A0.250.00 A0right0"/>
    </vehicle>
    <vehicle id="440" type="passenger" depart="198.40">
        <route edges="bottom0A0 bottom0A0.250.00 A0left0"/>
    </vehicle>
    <vehicle id="443" type="passenger" depart="199.15">
        <route edges="bottom0A0 bottom0A0.250.00"/>
    </vehicle>
    <vehicle id="445" type="passenger" depart="200.35">
        <route edges="top0A0.250.00 A0right0"/>
    </vehicle>
    <vehicle id="446" type="passenger" depart="200.40">
        <route edges="bottom0A0 bottom0A0.250.00 A0left0"/>
    </vehicle>
    <vehicle id="447" type="passenger" depart="202.70">
        <route edges="top0A0 top0A0.250.00 A0bottom0"/>
    </vehicle>
    <vehicle id="450" type="passenger" depart="204.25">
        <route edges="bottom0A0.250.00"/>
    </vehicle>
    <vehicle id="452" type="passenger" depart="204.50">
        <route edges="right0A0.250.00 A0left0"/>
    </vehicle>
    <vehicle id="453" type="passenger" depart="204.90">
        <route edges="bottom0A0.250.00"/>
    </vehicle>
    <vehicle id="455" type="passenger" depart="205.35">
        <route edges="left0A0.250.00 A0right0"/>
    </vehicle>
    <vehicle id="457" type="passenger" depart="205.50">
        <route edges="left0A0 left0A0.250.00 A0right0"/>
    </vehicle>
    <vehicle id="458" type="passenger" depart="205.60">
        <route edges="right0A0.250.00 A0left0"/>
    </vehicle>
    <vehicle id="459" type="passenger" depart="205.85">
        <route edges="right0A0 right0A0.250.00"/>
    </vehicle>
    <vehicle id="460" type="passenger" depart="206.85">
        <route edges="top0A0 top0A0.250.00 A0bottom0"/>
    </vehicle>
    <vehicle id="461" type="passenger" depart="207.25">
        <route edges="left0A0.250.00 A0right0"/>
    </vehicle>
    <vehicle id="463" type="passenger" depart="207.65">