<?xml version="1.0" encoding="UTF-8"?>

<!-- generated on 2023-02-12 18:47:04.294010 by randomTrips.py UNKNOWN
<configuration>
    <begin value="0"/>
    <end value="900"/>
    <insertion-rate value="12500.0"/>
    <net-file value="/home/franky3er/Documents/code/HieraGLight/scenarios/grid/5x5-150m/train/75-scenario/network.net.xml"/>
    <random value="True"/>
    <random-depart value="True"/>
    <route-file value="/home/franky3er/Documents/code/HieraGLight/scenarios/grid/5x5-150m/train/75-scenario/routes.rou.xml"/>
    <seed value="75"/>
    <output-trip-file value="/home/franky3er/Documents/code/HieraGLight/scenarios/grid/5x5-150m/train/75-scenario/trips.trips.xml"/>
    <vehicle-class value="passenger"/>
</configuration>
-->

<routes xmlns:xsi="http://www.w3.org/2001/XMLSchema-instance" xsi:noNamespaceSchemaLocation="http://sumo.dlr.de/xsd/routes_file.xsd">
    <vType id="passenger" vClass="passenger"/>
    <trip id="0" depart="0.05" from="left2A2" to="C3D3" type="passenger"/>
    <trip id="1" depart="0.09" from="B1B2" to="E3right3" type="passenger"/>
    <trip id="2" depart="0.32" from="D3E3.80.00" to="C2C1.80.00" type="passenger"/>
    <trip id="3" depart="1.27" from="A1B1.80.00" to="D2D3" type="passenger"/>
    <trip id="4" depart="1.36" from="B3B4.80.00" to="C4top2" type="passenger"/>
    <trip id="5" depart="1.70" from="D3D4" to="D1E1.80.00" type="passenger"/>
    <trip id="6" depart="1.94" from="C2B2.80.00" to="top4E4.80.00" type="passenger"/>
    <trip id="7" depart="2.19" from="D4D3.80.00" to="A3A2.80.00" type="passenger"/>
    <trip id="8" depart="2.26" from="E4D4" to="D4top3" type="passenger"/>
    <trip id="9" depart="2.68" from="D3C3" to="D4C4" type="passenger"/>
    <trip id="10" depart="2.98" from="left3A3.80.00" to="A4B4.80.00" type="passenger"/>
    <trip id="11" depart="3.07" from="D4D3" to="E0bottom4" type="passenger"/>
    <trip id="12" depart="3.10" from="A3A2.80.00" to="B1C1" type="passenger"/>
    <trip id="13" depart="3.50" from="D4D3" to="A3A2.80.00" type="passenger"/>
    <trip id="14" depart="3.54" from="D4E4.80.00" to="left0A0.80.00" type="passenger"/>
    <trip id="15" depart="3.74" from="C4D4.80.00" to="C3B3.80.00" type="passenger"/>
    <trip id="16" depart="4.30" from="left1A1.80.00" to="B1B2.80.00" type="passenger"/>
    <trip id="17" depart="4.51" from="D1D0" to="D3D4.80.00" type="passenger"/>
    <trip id="18" depart="4.64" from="B4A4.80.00" to="C4D4.80.00" type="passenger"/>
    <trip id="19" depart="4.79" from="right2E2" to="C3C4" type="passenger"/>
    <trip id="20" depart="4.83" from="A1A0.80.00" to="A3B3" type="passenger"/>
    <trip id="21" depart="5.10" from="B1C1" to="B3B4.80.00" type="passenger"/>
    <trip id="22" depart="5.14" from="left0A0" to="A0A1.80.00" type="passenger"/>
    <trip id="23" depart="5.22" from="C4D4.80.00" to="D1E1.80.00" type="passenger"/>
    <trip id="24" depart="5.69" from="A3A4.80.00" to="top1B4.80.00" type="passenger"/>
    <trip id="25" depart="5.76" from="D1D0" to="A2left2" type="passenger"/>
    <trip id="26" depart="5.97" from="D3D2" to="left2A2.80.00" type="passenger"/>
    <trip id="27" depart="6.34" from="C4D4" to="A1left1" type="passenger"/>
    <trip id="28" depart="6.58" from="right0E0.80.00" to="C2C3.80.00" type="passenger"/>
    <trip id="29" depart="6.74" from="A0A1" to="C4D4.80.00" type="passenger"/>
    <trip id="30" depart="7.36" from="left0A0" to="C3C4.80.00" type="passenger"/>
    <trip id="31" depart="8.29" from="C1B1.80.00" to="B3B4.80.00" type="passenger"/>
    <trip id="32" depart="8.87" from="A2A3.80.00" to="A0B0" type="passenger"/>
    <trip id="33" depart="8.88" from="right2E2.80.00" to="A4B4" type="passenger"/>
    <trip id="34" depart="9.32" from="C3D3" to="B2A2.80.00" type="passenger"/>
    <trip id="35" depart="9.54" from="A4B4" to="A0bottom0" type="passenger"/>
    <trip id="36" depart="9.85" from="C3C2" to="C1C2.80.00" type="passenger"/>
    <trip id="37" depart="10.22" from="C1D1" to="C2D2" type="passenger"/>
    <trip id="38" depart="10.64" from="C3B3.80.00" to="A2B2.80.00" type="passenger"/>
    <trip id="39" depart="10.85" from="C0D0" to="D0D1.80.00" type="passenger"/>
    <trip id="40" depart="10.92" from="A3B3.80.00" to="C1B1.80.00" type="passenger"/>
    <trip id="41" depart="11.22" from="right3E3.80.00" to="C3B3" type="passenger"/>
    <trip id="42" depart="12.00" from="top3D4" to="A2left2" type="passenger"/>
    <trip id="43" depart="13.06" from="left0A0" to="B3B2" type="passenger"/>
    <trip id="44" depart="13.38" from="D0C0" to="A0B0" type="passenger"/>
    <trip id="45" depart="14.13" from="D2D1" to="E4right4" type="passenger"/>
    <trip id="46" depart="14.53" from="D3C3.80.00" to="E3E2.80.00" type="passenger"/>
    <trip id="47" depart="14.69" from="C1D1" to="A0A1.80.00" type="passenger"/>
    <trip id="48" depart="14.77" from="C1D1" to="top3D4.80.00" type="passenger"/>
    <trip id="49" depart="16.00" from="C1D1.80.00" to="C2C3.80.00" type="passenger"/>
    <trip id="50" depart="16.33" from="A4B4.80.00" to="B3C3.80.00" type="passenger"/>
    <trip id="51" depart="17.78" from="B2B1.80.00" to="A2A3.80.00" type="passenger"/>
    <trip id="52" depart="18.55" from="C1C0.80.00" to="A3A4.80.00" type="passenger"/>
    <trip id="53" depart="18.82" from="right3E3" to="E0bottom4" type="passenger"/>
    <trip id="54" depart="18.94" from="D2C2.80.00" to="B1B2" type="passenger"/>
    <trip id="55" depart="19.37" from="B3B4.80.00" to="right2E2.80.00" type="passenger"/>
    <trip id="56" depart="19.66" from="B2B1" to="E3E4" type="passenger"/>
    <trip id="57" depart="19.85" from="D2C2" to="B0A0.80.00" type="passenger"/>
    <trip id="58" depart="20.34" from="E4D4.80.00" to="D4D3.80.00" type="passenger"/>
    <trip id="59" depart="21.26" from="B1A1.80.00" to="A3A4" type="passenger"/>
    <trip id="60" depart="21.27" from="D3C3.80.00" to="A0B0.80.00" type="passenger"/>
    <trip id="61" depart="21.50" from="D4D3" to="C3C2.80.00" type="passenger"/>
    <trip id="62" depart="21.89" from="D3D2.80.00" to="B3C3" type="passenger"/>
    <trip id="63" depart="22.82" from="E1E2" to="E2E1.80.00" type="passenger"/>
    <trip id="64" depart="22.85" from="top4E4.80.00" to="D2D1.80.00" type="passenger"/>
    <trip id="65" depart="22.86" from="B3A3.80.00" to="C0B0.80.00" type="passenger"/>
    <trip id="66" depart="22.86" from="top2C4.80.00" to="D0D1" type="passenger"/>
    <trip id="67" depart="23.17" from="bottom2C0.80.00" to="B4C4" type="passenger"/>
    <trip id="68" depart="23.18" from="C2B2.80.00" to="C0C1.80.00" type="passenger"/>
    <trip id="69" depart="23.33" from="C2D2.80.00" to="E1right1" type="passenger"/>
    <trip id="70" depart="23.70" from="D4C4" to="D3D2" type="passenger"/>
    <trip id="71" depart="24.16" from="D2C2.80.00" to="E1D1" type="passenger"/>
    <trip id="72" depart="24.54" from="E2E1.80.00" to="E0E1.80.00" type="passenger"/>
    <trip id="73" depart="24.78" from="A2A3" to="A0A1" type="passenger"/>
    <trip id="74" depart="25.01" from="left0A0.80.00" to="A0B0" type="passenger"/>
    <trip id="75" depart="25.59" from="B4B3.80.00" to="A2B2" type="passenger"/>
    <trip id="76" depart="25.65" from="bottom3D0" to="B0B1.80.00" type="passenger"/>
    <trip id="77" depart="25.69" from="E2E3" to="B3A3" type="passenger"/>
    <trip id="78" depart="25.70" from="A3B3" to="E1E2.80.00" type="passenger"/>
    <trip id="79" depart="25.84" from="left1A1.80.00" to="C1D1.80.00" type="passenger"/>
    <trip id="80" depart="26.01" from="E2D2.80.00" to="B1B2.80.00" type="passenger"/>
    <trip id="81" depart="26.11" from="top0A4" to="A0B0" type="passenger"/>
    <trip id="82" depart="26.50" from="C1D1.80.00" to="E2E3" type="passenger"/>
    <trip id="83" depart="26.95" from="D3D4" to="D3C3" type="passenger"/>
    <trip id="84" depart="27.27" from="A4B4.80.00" to="D4top3" type="passenger"/>
    <trip id="85" depart="27.31" from="D1D0" to="D2D3" type="passenger"/>
    <trip id="86" depart="27.36" from="C2B2" to="bottom4E0.80.00" type="passenger"/>
    <trip id="87" depart="27.62" from="D1E1.80.00" to="E4right4" type="passenger"/>
    <trip id="88" depart="27.76" from="B3A3" to="C2B2" type="passenger"/>
    <trip id="89" depart="27.82" from="D0E0" to="D0C0" type="passenger"/>
    <trip id="90" depart="27.88" from="A4A3.80.00" to="top2C4.80.00" type="passenger"/>
    <trip id="91" depart="27.88" from="D0E0.80.00" to="C2C1.80.00" type="passenger"/>
    <trip id="92" depart="27.99" from="D2D1.80.00" to="E2D2.80.00" type="passenger"/>
    <trip id="93" depart="28.22" from="C3C2.80.00" to="A2B2.80.00" type="passenger"/>
    <trip id="94" depart="28.56" from="D4E4.80.00" to="E4top4" type="passenger"/>
    <trip id="95" depart="28.75" from="C2B2" to="C2B2.80.00" type="passenger"/>
    <trip id="96" depart="29.87" from="C1D1" to="B3B2" type="passenger"/>
    <trip id="97" depart="30.33" from="E3E4" to="A0A1.80.00" type="passenger"/>
    <trip id="98" depart="30.54" from="C1C2" to="B2B3.80.00" type="passenger"/>
    <trip id="99" depart="30.90" from="A3A2.80.00" to="B1B2" type="passenger"/>
    <trip id="100" depart="30.91" from="C3B3.80.00" to="C2C3" type="passenger"/>
    <trip id="101" depart="31.02" from="B3C3" to="E0D0.80.00" type="passenger"/>
    <trip id="102" depart="31.10" from="top2C4" to="C2B2" type="passenger"/>
    <trip id="103" depart="31.16" from="D0D1" to="E3E4" type="passenger"/>
    <trip id="104" depart="31.36" from="D3D4.80.00" to="D0E0.80.00" type="passenger"/>
    <trip id="105" depart="31.38" from="C3B3" to="C0C1.80.00" type="passenger"/>
    <trip id="106" depart="31.98" from="A3A4.80.00" to="D0E0" type="passenger"/>
    <trip id="107" depart="32.21" from="D3D2" to="C3C2" type="passenger"/>
    <trip id="108" depart="32.23" from="E2D2.80.00" to="B1A1.80.00" type="passenger"/>
    <trip id="109" depart="32.29" from="top3D4.80.00" to="C3B3.80.00" type="passenger"/>
    <trip id="110" depart="33.15" from="B2C2" to="C2C1" type="passenger"/>
    <trip id="111" depart="33.46" from="E2E1.80.00" to="D1D0" type="passenger"/>
    <trip id="112" depart="34.02" from="B0B1" to="C0bottom2" type="passenger"/>
    <trip id="113" depart="34.04" from="A4B4" to="B3B4" type="passenger"/>
    <trip id="114" depart="34.15" from="right4E4" to="A1A2" type="passenger"/>
    <trip id="115" depart="34.37" from="E1D1.80.00" to="B1A1" type="passenger"/>
    <trip id="116" depart="34.50" from="left0A0" to="B3B2" type="passenger"/>
    <trip id="117" depart="35.78" from="left4A4.80.00" to="D3C3.80.00" type="passenger"/>
    <trip id="118" depart="35.81" from="D0C0.80.00" to="D1D2.80.00" type="passenger"/>
    <trip id="119" depart="35.98" from="D4C4" to="E4right4" type="passenger"/>
    <trip id="120" depart="35.98" from="B1C1.80.00" to="D4D3.80.00" type="passenger"/>
    <trip id="121" depart="36.10" from="D1C1.80.00" to="E3D3" type="passenger"/>
    <trip id="122" depart="36.47" from="C1D1.80.00" to="E1right1" type="passenger"/>
    <trip id="123" depart="36.50" from="B2B1" to="E2D2.80.00" type="passenger"/>
    <trip id="124" depart="36.57" from="bottom1B0" to="bottom2C0.80.00" type="passenger"/>
    <trip id="125" depart="36.71" from="B2A2.80.00" to="D3E3.80.00" type="passenger"/>
    <trip id="126" depart="37.09" from="D1C1" to="A1B1.80.00" type="passenger"/>
    <trip id="127" depart="37.24" from="D2D3.80.00" to="B1B2.80.00" type="passenger"/>
    <trip id="128" depart="37.30" from="B1B0.80.00" to="C3D3" type="passenger"/>
    <trip id="129" depart="37.34" from="E3D3.80.00" to="A1A0.80.00" type="passenger"/>
    <trip id="130" depart="38.22" from="B2B1" to="right3E3.80.00" type="passenger"/>
    <trip id="131" depart="38.50" from="A0A1" to="E1E0" type="passenger"/>
    <trip id="132" depart="39.58" from="D1C1" to="A1A2.80.00" type="passenger"/>
    <trip id="133" depart="40.97" from="right0E0" to="E4right4" type="passenger"/>
    <trip id="134" depart="41.70" from="D2E2" to="D1C1.80.00" type="passenger"/>
    <trip id="135" depart="41.80" from="E1D1.80.00" to="A4B4.80.00" type="passenger"/>
    <trip id="136" depart="42.29" from="E3D3.80.00" to="C0C1" type="passenger"/>
    <trip id="137" depart="42.33" from="D1D2" to="D2D3" type="passenger"/>
    <trip id="138" depart="42.43" from="C1B1.80.00" to="E2E1.80.00" type="passenger"/>
    <trip id="139" depart="42.44" from="E1D1.80.00" to="A0A1" type="passenger"/>
    <trip id="140" depart="42.62" from="A1B1.80.00" to="A1A2" type="passenger"/>
    <trip id="141" depart="43.27" from="C2D2" to="A2A3.80.00" type="passenger"/>
    <trip id="142" depart="43.52" from="E4E3" to="A1B1.80.00" type="passenger"/>
    <trip id="143" depart="43.76" from="right4E4" to="C4C3" type="passenger"/>
    <trip id="144" depart="44.45" from="top1B4.80.00" to="C1D1.80.00" type="passenger"/>
    <trip id="145" depart="44.50" from="D3D2.80.00" to="C2C3" type="passenger"/>
    <trip id="146" depart="44.66" from="A1B1.80.00" to="A2B2.80.00" type="passenger"/>
    <trip id="147" depart="44.70" from="C1D1" to="E2E1.80.00" type="passenger"/>
    <trip id="148" depart="45.25" from="D2D1.80.00" to="B3B2" type="passenger"/>
    <trip id="149" depart="45.37" from="C2B2" to="C3C2" type="passenger"/>
    <trip id="150" depart="46.11" from="D0D1.80.00" to="B2A2.80.00" type="passenger"/>
    <trip id="151" depart="46.80" from="A2A1" to="B4B3" type="passenger"/>
    <trip id="152" depart="46.84" from="C1C0" to="B3B2" type="passenger"/>
    <trip id="153" depart="47.81" from="A1A2.80.00" to="E4D4" type="passenger"/>
    <trip id="154" depart="47.97" from="B1C1" to="E2E1.80.00" type="passenger"/>
    <trip id="155" depart="48.09" from="D0E0.80.00" to="C0D0" type="passenger"/>
    <trip id="156" depart="48.18" from="C0C1" to="E4right4" type="passenger"/>
    <trip id="157" depart="48.33" from="D1C1.80.00" to="B3B2" type="passenger"/>
    <trip id="158" depart="48.73" from="bottom3D0" to="B1B2.80.00" type="passenger"/>
    <trip id="159" depart="49.03" from="A2A1.80.00" to="C1C2.80.00" type="passenger"/>
    <trip id="160" depart="49.31" from="bottom2C0" to="B4B3.80.00" type="passenger"/>
    <trip id="161" depart="49.42" from="D0C0" to="A3left3" type="passenger"/>
    <trip id="162" depart="49.75" from="C2C3" to="C0C1" type="passenger"/>
    <trip id="163" depart="49.76" from="C4B4" to="B2B1.80.00" type="passenger"/>
    <trip id="164" depart="49.80" from="left0A0.80.00" to="D4top3" type="passenger"/>
    <trip id="165" depart="49.83" from="top1B4" to="E4E3" type="passenger"/>
    <trip id="166" depart="49.95" from="B0A0" to="B2A2.80.00" type="passenger"/>
    <trip id="167" depart="50.10" from="A1A0.80.00" to="E0E1.80.00" type="passenger"/>
    <trip id="168" depart="50.66" from="right2E2" to="D3D2" type="passenger"/>
    <trip id="169" depart="51.26" from="top3D4" to="bottom0A0.80.00" type="passenger"/>
    <trip id="170" depart="51.36" from="top1B4.80.00" to="B2B1" type="passenger"/>
    <trip id="171" depart="51.47" from="top0A4" to="B1B2" type="passenger"/>
    <trip id="172" depart="51.52" from="B1C1" to="C3C4" type="passenger"/>
    <trip id="173" depart="51.56" from="D0D1" to="A2A1.80.00" type="passenger"/>
    <trip id="174" depart="51.60" from="C0D0" to="B3B2.80.00" type="passenger"/>
    <trip id="175" depart="51.82" from="C2C3" to="A3A4" type="passenger"/>
    <trip id="176" depart="52.39" from="right3E3.80.00" to="C4D4" type="passenger"/>
    <trip id="177" depart="52.91" from="C2C1.80.00" to="C4C3.80.00" type="passenger"/>
    <trip id="178" depart="53.26" from="bottom1B0" to="B4C4.80.00" type="passenger"/>
    <trip id="179" depart="54.46" from="A1A2.80.00" to="D0E0" type="passenger"/>
    <trip id="180" depart="54.73" from="E3E2" to="E1E2.80.00" type="passenger"/>
    <trip id="181" depart="54.73" from="right1E1.80.00" to="D4D3" type="passenger"/>
    <trip id="182" depart="54.84" from="B2C2.80.00" to="C3D3.80.00" type="passenger"/>
    <trip id="183" depart="55.71" from="C0B0" to="A1A2" type="passenger"/>
    <trip id="184" depart="56.26" from="C0C1" to="D1D0.80.00" type="passenger"/>
    <trip id="185" depart="56.31" from="D3D2.80.00" to="E1E2" type="passenger"/>
    <trip id="186" depart="56.46" from="C4D4.80.00" to="D4D3.80.00" type="passenger"/>
    <trip id="187" depart="56.61" from="B4A4.80.00" to="A4A3.80.00" type="passenger"/>
    <trip id="188" depart="56.72" from="B2B1.80.00" to="E1E2" type="passenger"/>
    <trip id="189" depart="56.84" from="C2C1.80.00" to="right2E2.80.00" type="passenger"/>
    <trip id="190" depart="57.09" from="D1C1.80.00" to="B0A0" type="passenger"/>
    <trip id="191" depart="57.15" from="E2E3.80.00" to="C3C2.80.00" type="passenger"/>
    <trip id="192" depart="58.02" from="D1D0.80.00" to="A4top0" type="passenger"/>
    <trip id="193" depart="58.43" from="D0C0.80.00" to="B4C4" type="passenger"/>
    <trip id="194" depart="58.54" from="D2C2.80.00" to="A1A0.80.00" type="passenger"/>
    <trip id="195" depart="58.70" from="A1A2" to="D1C1.80.00" type="passenger"/>
    <trip id="196" depart="58.75" from="A2A3.80.00" to="E1D1.80.00" type="passenger"/>
    <trip id="197" depart="59.23" from="top3D4.80.00" to="D4top3" type="passenger"/>
    <trip id="198" depart="59.36" from="E4D4" to="C4B4" type="passenger"/>
    <trip id="199" depart="59.57" from="A3A4.80.00" to="A0left0" type="passenger"/>
    <trip id="200" depart="59.85" from="A4A3" to="E3D3.80.00" type="passenger"/>
    <trip id="201" depart="60.08" from="A1A0" to="A4A3.80.00" type="passenger"/>
    <trip id="202" depart="60.16" from="A2A1.80.00" to="C0B0" type="passenger"/>
    <trip id="203" depart="60.69" from="D0D1.80.00" to="D0bottom3" type="passenger"/>
    <trip id="204" depart="60.94" from="B3C3" to="B4top1" type="passenger"/>
    <trip id="205" depart="60.98" from="D4C4" to="E0bottom4" type="passenger"/>
    <trip id="206" depart="61.03" from="E2E1" to="A3A2" type="passenger"/>
    <trip id="207" depart="61.10" from="D1E1" to="E1E0.80.00" type="passenger"/>
    <trip id="208" depart="61.34" from="D3E3.80.00" to="E0D0" type="passenger"/>
    <trip id="209" depart="61.74" from="A0B0.80.00" to="bottom0A0.80.00" type="passenger"/>
    <trip id="210" depart="62.63" from="D1C1" to="B3A3" type="passenger"/>
    <trip id="211" depart="63.09" from="E0E1" to="B0B1" type="passenger"/>
    <trip id="212" depart="63.28" from="B3B4" to="C0D0.80.00" type="passenger"/>
    <trip id="213" depart="63.40" from="B2A2.80.00" to="A4top0" type="passenger"/>
    <trip id="214" depart="63.54" from="C3D3.80.00" to="top3D4.80.00" type="passenger"/>
    <trip id="215" depart="63.94" from="B2B1.80.00" to="E3E2.80.00" type="passenger"/>
    <trip id="216" depart="64.18" from="B2A2.80.00" to="D1E1" type="passenger"/>
    <trip id="217" depart="64.19" from="C2D2" to="B4A4" type="passenger"/>
    <trip id="218" depart="64.23" from="left3A3.80.00" to="B4B3" type="passenger"/>
    <trip id="219" depart="64.25" from="E4E3" to="E3E2.80.00" type="passenger"/>
    <trip id="220" depart="65.04" from="C0C1" to="E1right1" type="passenger"/>
    <trip id="221" depart="65.32" from="C1C2.80.00" to="bottom3D0.80.00" type="passenger"/>
    <trip id="222" depart="67.22" from="B2C2" to="A2A1.80.00" type="passenger"/>
    <trip id="223" depart="67.26" from="B1B2" to="top4E4.80.00" type="passenger"/>
    <trip id="224" depart="67.27" from="C4C3" to="C3D3.80.00" type="passenger"/>
    <trip id="225" depart="67.50" from="left3A3.80.00" to="A2B2" type="passenger"/>
    <trip id="226" depart="67.59" from="E1E0.80.00" to="A0A1" type="passenger"/>
    <trip id="227" depart="67.64" from="B1A1" to="E1E0.80.00" type="passenger"/>
    <trip id="228" depart="67.90" from="left3A3.80.00" to="D1D0" type="passenger"/>
    <trip id="229" depart="68.25" from="D3E3.80.00" to="B1C1.80.00" type="passenger"/>
    <trip id="230" depart="68.39" from="E4E3" to="C4top2" type="passenger"/>
    <trip id="231" depart="68.47" from="E4D4" to="C1C0.80.00" type="passenger"/>
    <trip id="232" depart="68.52" from="D2C2" to="D1E1" type="passenger"/>
    <trip id="233" depart="69.04" from="C3B3" to="B3B4.80.00" type="passenger"/>
    <trip id="234" depart="69.06" from="D2D3" to="C3B3.80.00" type="passenger"/>
    <trip id="235" depart="69.27" from="top1B4" to="E3E4" type="passenger"/>
    <trip id="236" depart="69.79" from="A3B3.80.00" to="B0bottom1" type="passenger"/>
    <trip id="237" depart="69.96" from="B1A1.80.00" to="B3A3" type="passenger"/>
    <trip id="238" depart="70.03" from="B1B2" to="B4A4" type="passenger"/>
    <trip id="239" depart="70.04" from="B1C1" to="D2E2" type="passenger"/>
    <trip id="240" depart="70.54" from="E3E4.80.00" to="right4E4.80.00" type="passenger"/>
    <trip id="241" depart="70.80" from="top1B4" to="D2D1" type="passenger"/>
    <trip id="242" depart="71.01" from="bottom0A0" to="A1left1" type="passenger"/>
    <trip id="243" depart="71.19" from="D1D0" to="top0A4.80.00" type="passenger"/>
    <trip id="244" depart="71.27" from="B1B0.80.00" to="E1D1.80.00" type="passenger"/>
    <trip id="245" depart="71.30" from="E1E2.80.00" to="C0B0.80.00" type="passenger"/>
    <trip id="246" depart="71.65" from="B1B2" to="D3E3" type="passenger"/>
    <trip id="247" depart="72.09" from="B0A0.80.00" to="B0bottom1" type="passenger"/>
    <trip id="248" depart="72.41" from="C1C0" to="E0right0" type="passenger"/>
    <trip id="249" depart="72.53" from="E0D0.80.00" to="B4A4" type="passenger"/>
    <trip id="250" depart="72.89" from="A0A1" to="C1D1.80.00" type="passenger"/>
    <trip id="251" depart="73.00" from="D0E0" to="C3C4" type="passenger"/>
    <trip id="252" depart="73.49" from="bottom2C0.80.00" to="B1B0" type="passenger"/>
    <trip id="253" depart="73.52" from="B2C2.80.00" to="C3C2" type="passenger"/>
    <trip id="254" depart="73.86" from="B0C0" to="A1A2.80.00" type="passenger"/>
    <trip id="255" depart="74.42" from="D1D2.80.00" to="A2A1.80.00" type="passenger"/>
    <trip id="256" depart="74.62" from="bottom3D0.80.00" to="C2C3" type="passenger"/>
    <trip id="257" depart="74.62" from="right2E2" to="C3D3" type="passenger"/>
    <trip id="258" depart="75.19" from="D4D3" to="D0C0" type="passenger"/>
    <trip id="259" depart="75.22" from="A3A2" to="B2B3" type="passenger"/>
    <trip id="260" depart="75.45" from="B4B3" to="B3A3.80.00" type="passenger"/>
    <trip id="261" depart="75.85" from="D2D3" to="bottom0A0.80.00" type="passenger"/>
    <trip id="262" depart="75.99" from="D0C0" to="C2D2" type="passenger"/>
    <trip id="263" depart="76.00" from="left4A4.80.00" to="E3E4.80.00" type="passenger"/>
    <trip id="264" depart="76.50" from="B0A0" to="B1A1" type="passenger"/>
    <trip id="265" depart="77.08" from="B3A3.80.00" to="D3D2" type="passenger"/>
    <trip id="266" depart="78.05" from="D1D0.80.00" to="right1E1.80.00" type="passenger"/>
    <trip id="267" depart="78.41" from="A4A3.80.00" to="D0E0" type="passenger"/>
    <trip id="268" depart="78.51" from="right0E0" to="A3A2.80.00" type="passenger"/>
    <trip id="269" depart="79.63" from="right4E4.80.00" to="E4E3" type="passenger"/>
    <trip id="270" depart="80.14" from="E4E3" to="E1right1" type="passenger"/>
    <trip id="271" depart="80.19" from="D2D1" to="D4C4" type="passenger"/>
    <trip id="272" depart="80.45" from="top0A4.80.00" to="A3A4" type="passenger"/>
    <trip id="273" depart="81.06" from="B1B2" to="A1B1.80.00" type="passenger"/>
    <trip id="274" depart="81.31" from="D3C3.80.00" to="C4B4.80.00" type="passenger"/>
    <trip id="275" depart="81.53" from="bottom0A0" to="B0C0.80.00" type="passenger"/>
    <trip id="276" depart="81.97" from="A2A3" to="E1E0" type="passenger"/>
    <trip id="277" depart="82.03" from="B2B3.80.00" to="E2D2.80.00" type="passenger"/>
    <trip id="278" depart="82.06" from="E1E2.80.00" to="A2B2" type="passenger"/>
    <trip id="279" depart="82.24" from="C1C0" to="C3D3.80.00" type="passenger"/>
    <trip id="280" depart="82.26" from="B1A1.80.00" to="E3D3" type="passenger"/>
    <trip id="281" depart="82.43" from="E2E3.80.00" to="D1D0" type="passenger"/>
    <trip id="282" depart="82.43" from="bottom4E0" to="left0A0.80.00" type="passenger"/>
    <trip id="283" depart="82.55" from="right2E2" to="A3B3.80.00" type="passenger"/>
    <trip id="284" depart="83.50" from="C3B3.80.00" to="C3C4.80.00" type="passenger"/>
    <trip id="285" depart="84.41" from="C0D0.80.00" to="A1left1" type="passenger"/>
    <trip id="286" depart="84.58" from="C2C1" to="D0D1" type="passenger"/>
    <trip id="287" depart="84.66" from="C0D0.80.00" to="A3left3" type="passenger"/>
    <trip id="288" depart="85.21" from="B1C1.80.00" to="C1C0" type="passenger"/>
    <trip id="289" depart="85.61" from="C3B3.80.00" to="C4C3.80.00" type="passenger"/>
    <trip id="290" depart="85.73" from="C1B1.80.00" to="C0D0" type="passenger"/>
    <trip id="291" depart="85.86" from="E3E4.80.00" to="top2C4.80.00" type="passenger"/>
    <trip id="292" depart="85.88" from="C0D0.80.00" to="C1D1.80.00" type="passenger"/>
    <trip id="293" depart="85.90" from="A2A1" to="C3C2" type="passenger"/>
    <trip id="294" depart="86.14" from="C2C1.80.00" to="D1D0" type="passenger"/>
    <trip id="295" depart="86.23" from="D3D4" to="bottom2C0.80.00" type="passenger"/>
    <trip id="296" depart="86.45" from="bottom3D0" to="C0D0.80.00" type="passenger"/>
    <trip id="297" depart="86.66" from="A1A2" to="C3C2.80.00" type="passenger"/>
    <trip id="298" depart="86.66" from="C3D3" to="E3D3.80.00" type="passenger"/>
    <trip id="299" depart="87.02" from="C1C2.80.00" to="top0A4.80.00" type="passenger"/>
    <trip id="300" depart="87.78" from="C4D4" to="A3A2" type="passenger"/>
    <trip id="301" depart="88.00" from="E2E3" to="D0E0.80.00" type="passenger"/>
    <trip id="302" depart="88.30" from="bottom2C0" to="D2D3.80.00" type="passenger"/>
    <trip id="303" depart="88.38" from="C3B3" to="D0D1.80.00" type="passenger"/>
    <trip id="304" depart="88.76" from="A4A3.80.00" to="B4B3.80.00" type="passenger"/>
    <trip id="305" depart="88.88" from="E3E2" to="C2C3" type="passenger"/>
    <trip id="306" depart="88.96" from="B2A2" to="C2C3.80.00" type="passenger"/>
    <trip id="307" depart="89.13" from="C1D1" to="D0C0" type="passenger"/>
    <trip id="308" depart="89.22" from="D2D1" to="D0C0.80.00" type="passenger"/>
    <trip id="309" depart="89.74" from="A0B0.80.00" to="E4D4.80.00" type="passenger"/>
    <trip id="310" depart="90.05" from="E3E4" to="D1D0" type="passenger"/>
    <trip id="311" depart="90.18" from="A1B1" to="C0B0.80.00" type="passenger"/>
    <trip id="312" depart="90.38" from="E3E2.80.00" to="D4D3.80.00" type="passenger"/>
    <trip id="313" depart="90.64" from="left0A0.80.00" to="A2left2" type="passenger"/>
    <trip id="314" depart="90.67" from="D3D4.80.00" to="D2D3" type="passenger"/>
    <trip id="315" depart="90.70" from="E3E2.80.00" to="C2D2" type="passenger"/>
    <trip id="316" depart="90.84" from="top4E4" to="D1D0.80.00" type="passenger"/>
    <trip id="317" depart="90.98" from="C2B2.80.00" to="A2B2.80.00" type="passenger"/>
    <trip id="318" depart="91.18" from="B1B0" to="D0E0" type="passenger"/>
    <trip id="319" depart="91.50" from="bottom2C0.80.00" to="D1D2.80.00" type="passenger"/>
    <trip id="320" depart="91.98" from="A0B0.80.00" to="bottom4E0.80.00" type="passenger"/>
    <trip id="321" depart="92.21" from="right0E0.80.00" to="B1A1" type="passenger"/>
    <trip id="322" depart="92.40" from="top3D4.80.00" to="top0A4.80.00" type="passenger"/>
    <trip id="323" depart="92.93" from="left1A1" to="B0C0.80.00" type="passenger"/>
    <trip id="324" depart="93.87" from="C2D2" to="E4top4" type="passenger"/>
    <trip id="325" depart="94.06" from="E2E3" to="C2C1" type="passenger"/>
    <trip id="326" depart="94.38" from="D0D1.80.00" to="C1D1.80.00" type="passenger"/>
    <trip id="327" depart="94.38" from="B0C0.80.00" to="A3A4.80.00" type="passenger"/>
    <trip id="328" depart="94.70" from="A1A2.80.00" to="E4D4" type="passenger"/>
    <trip id="329" depart="94.78" from="A2A1.80.00" to="A2B2" type="passenger"/>
    <trip id="330" depart="94.87" from="C3D3.80.00" to="B0C0.80.00" type="passenger"/>
    <trip id="331" depart="94.98" from="right0E0.80.00" to="A2A1" type="passenger"/>
    <trip id="332" depart="95.54" from="C0D0.80.00" to="E4right4" type="passenger"/>
    <trip id="333" depart="95.79" from="B2A2.80.00" to="E3E2.80.00" type="passenger"/>
    <trip id="334" depart="95.88" from="left3A3" to="E3D3" type="passenger"/>
    <trip id="335" depart="95.91" from="B4A4" to="D1C1.80.00" type="passenger"/>
    <trip id="336" depart="96.46" from="bottom3D0" to="E0right0" type="passenger"/>
    <trip id="337" depart="96.68" from="bottom3D0" to="E3E4.80.00" type="passenger"/>
    <trip id="338" depart="97.33" from="D1D0" to="D0D1" type="passenger"/>
    <trip id="339" depart="97.50" from="D4E4" to="bottom3D0.80.00" type="passenger"/>
    <trip id="340" depart="97.50" from="C4D4.80.00" to="C0C1.80.00" type="passenger"/>
    <trip id="341" depart="97.54" from="E3E2.80.00" to="B3B2.80.00" type="passenger"/>
    <trip id="342" depart="97.58" from="C2D2" to="B3C3.80.00" type="passenger"/>
    <trip id="343" depart="97.70" from="A1B1.80.00" to="B4A4.80.00" type="passenger"/>
    <trip id="344" depart="97.86" from="E1D1" to="D2D3.80.00" type="passenger"/>
    <trip id="345" depart="98.09" from="E2D2.80.00" to="C3C2.80.00" type="passenger"/>
    <trip id="346" depart="98.13" from="A0B0.80.00" to="E2E3" type="passenger"/>
    <trip id="347" depart="98.76" from="B0B1.80.00" to="D4D3.80.00" type="passenger"/>
    <trip id="348" depart="98.82" from="D2C2.80.00" to="C3B3" type="passenger"/>
    <trip id="349" depart="98.85" from="E0D0.80.00" to="left3A3.80.00" type="passenger"/>
    <trip id="350" depart="99.17" from="top2C4.80.00" to="D3E3" type="passenger"/>
    <trip id="351" depart="99.78" from="E2D2" to="B4C4" type="passenger"/>
    <trip id="352" depart="100.23" from="B3C3" to="C2C1" type="passenger"/>
    <trip id="353" depart="100.56" from="E1E2.80.00" to="E0right0" type="passenger"/>