<?xml version="1.0" encoding="UTF-8"?>

<!-- generated on 2023-04-26 16:56:43.583297 by randomTrips.py UNKNOWN
<configuration>
    <begin value="0"/>
    <end value="900"/>
    <insertion-rate value="8000.0"/>
    <net-file value="/home/franky3er/Documents/code/HieraGLight/scenarios/grid/1x1-500m/train/23-scenario/network.net.xml"/>
    <random value="True"/>
    <random-depart value="True"/>
    <route-file value="/home/franky3er/Documents/code/HieraGLight/scenarios/grid/1x1-500m/train/23-scenario/routes.rou.xml"/>
    <seed value="23"/>
    <output-trip-file value="/home/franky3er/Documents/code/HieraGLight/scenarios/grid/1x1-500m/train/23-scenario/trips.trips.xml"/>
    <vehicle-class value="passenger"/>
</configuration>
-->

<!-- generated on 2023-04-26 16:56:43 by Eclipse SUMO duarouter Version 1.16.0
<configuration xmlns:xsi="http://www.w3.org/2001/XMLSchema-instance" xsi:noNamespaceSchemaLocation="http://sumo.dlr.de/xsd/duarouterConfiguration.xsd">

    <input>
        <net-file value="/home/franky3er/Documents/code/HieraGLight/scenarios/grid/1x1-500m/train/23-scenario/network.net.xml"/>
        <route-files value="/home/franky3er/Documents/code/HieraGLight/scenarios/grid/1x1-500m/train/23-scenario/trips.trips.xml"/>
    </input>

    <output>
        <output-file value="/home/franky3er/Documents/code/HieraGLight/scenarios/grid/1x1-500m/train/23-scenario/routes.rou.xml"/>
        <alternatives-output value="NUL"/>
    </output>

    <time>
        <begin value="0"/>
        <end value="900"/>
    </time>

    <report>
        <no-warnings value="true"/>
        <ignore-errors value="true"/>
        <no-step-log value="true"/>
    </report>

</configuration>
-->

<routes xmlns:xsi="http://www.w3.org/2001/XMLSchema-instance" xsi:noNamespaceSchemaLocation="http://sumo.dlr.de/xsd/routes_file.xsd">
    <vType id="passenger" vClass="passenger"/>
    <vehicle id="1" type="passenger" depart="0.35">
        <route edges="bottom0A0 bottom0A0.250.00 A0top0"/>
    </vehicle>
    <vehicle id="3" type="passenger" depart="0.60">
        <route edges="bottom0A0.250.00 A0top0"/>
    </vehicle>
    <vehicle id="4" type="passenger" depart="0.75">
        <route edges="left0A0.250.00"/>
    </vehicle>
    <vehicle id="5" type="passenger" depart="0.90">
        <route edges="bottom0A0 bottom0A0.250.00 A0left0"/>
    </vehicle>
    <vehicle id="6" type="passenger" depart="1.10">
        <route edges="right0A0 right0A0.250.00"/>
    </vehicle>
    <vehicle id="7" type="passenger" depart="1.25">
        <route edges="left0A0 left0A0.250.00"/>
    </vehicle>
    <vehicle id="8" type="passenger" depart="1.40">
        <route edges="top0A0 top0A0.250.00 A0bottom0"/>
    </vehicle>
    <vehicle id="9" type="passenger" depart="1.60">
        <route edges="top0A0 top0A0.250.00 A0right0"/>
    </vehicle>
    <vehicle id="10" type="passenger" depart="2.05">
        <route edges="bottom0A0 bottom0A0.250.00 A0left0"/>
    </vehicle>
    <vehicle id="15" type="passenger" depart="4.20">
        <route edges="bottom0A0.250.00 A0left0"/>
    </vehicle>
    <vehicle id="17" type="passenger" depart="4.45">
        <route edges="right0A0 right0A0.250.00 A0top0"/>
    </vehicle>
    <vehicle id="18" type="passenger" depart="4.70">
        <route edges="top0A0.250.00 A0bottom0"/>
    </vehicle>
    <vehicle id="21" type="passenger" depart="5.65">
        <route edges="right0A0 right0A0.250.00 A0left0"/>
    </vehicle>
    <vehicle id="23" type="passenger" depart="6.45">
        <route edges="left0A0.250.00 A0bottom0"/>
    </vehicle>
    <vehicle id="28" type="passenger" depart="9.45">
        <route edges="right0A0.250.00 A0left0"/>
    </vehicle>
    <vehicle id="30" type="passenger" depart="10.75">
        <route edges="right0A0.250.00"/>
    </vehicle>
    <vehicle id="33" type="passenger" depart="13.60">
        <route edges="bottom0A0 bottom0A0.250.00 A0left0"/>
    </vehicle>
    <vehicle id="37" type="passenger" depart="16.20">
        <route edges="left0A0.250.00"/>
    </vehicle>
    <vehicle id="42" type="passenger" depart="18.45">
        <route edges="left0A0 left0A0.250.00 A0bottom0"/>
    </vehicle>
    <vehicle id="43" type="passenger" depart="19.00">
        <route edges="top0A0 top0A0.250.00"/>
    </vehicle>
    <vehicle id="44" type="passenger" depart="19.00">
        <route edges="right0A0 right0A0.250.00 A0bottom0"/>
    </vehicle>
    <vehicle id="47" type="passenger" depart="22.35">
        <route edges="bottom0A0.250.00 A0left0"/>
    </vehicle>
    <vehicle id="53" type="passenger" depart="26.30">
        <route edges="right0A0.250.00 A0bottom0"/>
    </vehicle>
    <vehicle id="54" type="passenger" depart="26.50">
        <route edges="left0A0 left0A0.250.00 A0right0"/>
    </vehicle>
    <vehicle id="55" type="passenger" depart="26.60">
        <route edges="left0A0 left0A0.250.00 A0right0"/>
    </vehicle>
    <vehicle id="56" type="passenger" depart="26.95">
        <route edges="left0A0.250.00 A0bottom0"/>
    </vehicle>
    <vehicle id="57" type="passenger" depart="28.45">
        <route edges="right0A0.250.00 A0top0"/>
    </vehicle>
    <vehicle id="59" type="passenger" depart="29.35">
        <route edges="right0A0.250.00"/>
    </vehicle>
    <vehicle id="63" type="passenger" depart="31.00">
        <route edges="bottom0A0.250.00 A0left0"/>
    </vehicle>
    <vehicle id="65" type="passenger" depart="31.60">
        <route edges="left0A0 left0A0.250.00 A0right0"/>
    </vehicle>
    <vehicle id="66" type="passenger" depart="31.85">
        <route edges="left0A0.250.00 A0bottom0"/>
    </vehicle>
    <vehicle id="71" type="passenger" depart="33.35">
        <route edges="right0A0.250.00 A0bottom0"/>
    </vehicle>
    <vehicle id="76" type="passenger" depart="35.40">
        <route edges="top0A0 top0A0.250.00 A0left0"/>
    </vehicle>
    <vehicle id="79" type="passenger" depart="36.15">
        <route edges="bottom0A0 bottom0A0.250.00 A0right0"/>
    </vehicle>
    <vehicle id="80" type="passenger" depart="37.40">
        <route edges="top0A0.250.00 A0bottom0"/>
    </vehicle>
    <vehicle id="82" type="passenger" depart="39.95">
        <route edges="top0A0.250.00 A0right0"/>
    </vehicle>
    <vehicle id="85" type="passenger" depart="40.70">
        <route edges="left0A0.250.00 A0right0"/>
    </vehicle>
    <vehicle id="89" type="passenger" depart="41.85">
        <route edges="left0A0.250.00"/>
    </vehicle>
    <vehicle id="91" type="passenger" depart="42.40">
        <route edges="bottom0A0 bottom0A0.250.00 A0left0"/>
    </vehicle>
    <vehicle id="93" type="passenger" depart="44.15">
        <route edges="top0A0 top0A0.250.00 A0right0"/>
    </vehicle>
    <vehicle id="94" type="passenger" depart="44.30">
        <route edges="left0A0.250.00"/>
    </vehicle>
    <vehicle id="95" type="passenger" depart="45.75">
        <route edges="bottom0A0 bottom0A0.250.00 A0right0"/>
    </vehicle>
    <vehicle id="96" type="passenger" depart="45.85">
        <route edges="bottom0A0.250.00"/>
    </vehicle>
    <vehicle id="97" type="passenger" depart="45.85">
        <route edges="top0A0.250.00"/>
    </vehicle>
    <vehicle id="104" type="passenger" depart="48.55">
        <route edges="top0A0 top0A0.250.00 A0right0"/>
    </vehicle>
    <vehicle id="107" type="passenger" depart="50.35">
        <route edges="top0A0 top0A0.250.00 A0right0"/>
    </vehicle>
    <vehicle id="108" type="passenger" depart="50.55">
        <route edges="top0A0 top0A0.250.00 A0right0"/>
    </vehicle>
    <vehicle id="111" type="passenger" depart="51.90">
        <route edges="right0A0 right0A0.250.00"/>
    </vehicle>
    <vehicle id="113" type="passenger" depart="52.10">
        <route edges="right0A0 right0A0.250.00 A0top0"/>
    </vehicle>
    <vehicle id="115" type="passenger" depart="52.40">
        <route edges="top0A0 top0A0.250.00"/>
    </vehicle>
    <vehicle id="116" type="passenger" depart="52.60">
        <route edges="top0A0.250.00 A0bottom0"/>
    </vehicle>
    <vehicle id="118" type="passenger" depart="53.65">
        <route edges="bottom0A0.250.00 A0top0"/>
    </vehicle>
    <vehicle id="119" type="passenger" depart="55.45">
        <route edges="bottom0A0.250.00"/>
    </vehicle>
    <vehicle id="120" type="passenger" depart="57.35">
        <route edges="left0A0.250.00"/>
    </vehicle>
    <vehicle id="121" type="passenger" depart="57.45">
        <route edges="top0A0 top0A0.250.00"/>
    </vehicle>
    <vehicle id="125" type="passenger" depart="58.90">
        <route edges="top0A0.250.00 A0left0"/>
    </vehicle>
    <vehicle id="126" type="passenger" depart="59.10">
        <route edges="left0A0.250.00"/>
    </vehicle>
    <vehicle id="128" type="passenger" depart="59.55">
        <route edges="bottom0A0.250.00 A0left0"/>
    </vehicle>
    <vehicle id="130" type="passenger" depart="59.90">
        <route edges="left0A0.250.00"/>
    </vehicle>
    <vehicle id="132" type="passenger" depart="59.95">
        <route edges="bottom0A0 bottom0A0.250.00"/>
    </vehicle>
    <vehicle id="133" type="passenger" depart="60.05">
        <route edges="bottom0A0.250.00 A0left0"/>
    </vehicle>
    <vehicle id="135" type="passenger" depart="61.20">
        <route edges="left0A0 left0A0.250.00 A0top0"/>
    </vehicle>
    <vehicle id="137" type="passenger" depart="61.50">
        <route edges="bottom0A0.250.00 A0left0"/>
    </vehicle>
    <vehicle id="138" type="passenger" depart="62.25">
        <route edges="left0A0.250.00"/>
    </vehicle>
    <vehicle id="139" type="passenger" depart="62.80">
        <route edges="right0A0.250.00 A0top0"/>
    </vehicle>
    <vehicle id="141" type="passenger" depart="63.10">
        <route edges="bottom0A0.250.00"/>
    </vehicle>
    <vehicle id="142" type="passenger" depart="63.15">
        <route edges="bottom0A0 bottom0A0.250.00 A0right0"/>
    </vehicle>
    <vehicle id="147" type="passenger" depart="64.05">
        <route edges="left0A0 left0A0.250.00"/>
    </vehicle>
    <vehicle id="149" type="passenger" depart="65.25">
        <route edges="left0A0 left0A0.250.00 A0bottom0"/>
    </vehicle>
    <vehicle id="152" type="passenger" depart="65.60">
        <route edges="bottom0A0.250.00 A0left0"/>
    </vehicle>
    <vehicle id="153" type="passenger" depart="65.80">
        <route edges="right0A0.250.00 A0left0"/>
    </vehicle>
    <vehicle id="154" type="passenger" depart="66.85">
        <route edges="right0A0.250.00 A0bottom0"/>
    </vehicle>
    <vehicle id="158" type="passenger" depart="68.65">
        <route edges="top0A0 top0A0.250.00"/>
    </vehicle>
    <vehicle id="160" type="passenger" depart="71.75">
        <route edges="right0A0 right0A0.250.00 A0top0"/>
    </vehicle>
    <vehicle id="161" type="passenger" depart="72.15">
        <route edges="top0A0.250.00"/>
    </vehicle>
    <vehicle id="162" type="passenger" depart="72.45">
        <route edges="right0A0.250.00 A0top0"/>
    </vehicle>
    <vehicle id="163" type="passenger" depart="73.00">
        <route edges="top0A0.250.00 A0bottom0"/>
    </vehicle>
    <vehicle id="167" type="passenger" depart="75.70">
        <route edges="top0A0.250.00 A0bottom0"/>
    </vehicle>
    <vehicle id="168" type="passenger" depart="76.40">
        <route edges="right0A0 right0A0.250.00 A0bottom0"/>
    </vehicle>
    <vehicle id="173" type="passenger" depart="78.70">
        <route edges="top0A0.250.00"/>
    </vehicle>
    <vehicle id="174" type="passenger" depart="78.75">
        <route edges="right0A0 right0A0.250.00 A0left0"/>
    </vehicle>
    <vehicle id="175" type="passenger" depart="79.45">
        <route edges="top0A0.250.00 A0left0"/>
    </vehicle>
    <vehicle id="177" type="passenger" depart="80.65">
        <route edges="right0A0 right0A0.250.00 A0left0"/>
    </vehicle>
    <vehicle id="179" type="passenger" depart="80.95">
        <route edges="bottom0A0.250.00 A0left0"/>
    </vehicle>
    <vehicle id="182" type="passenger" depart="81.35">
        <route edges="left0A0.250.00 A0bottom0"/>
    </vehicle>
    <vehicle id="184" type="passenger" depart="81.70">
        <route edges="right0A0.250.00 A0top0"/>
    </vehicle>
    <vehicle id="185" type="passenger" depart="82.10">
        <route edges="bottom0A0.250.00"/>
    </vehicle>
    <vehicle id="186" type="passenger" depart="82.85">
        <route edges="left0A0 left0A0.250.00 A0top0"/>
    </vehicle>
    <vehicle id="189" type="passenger" depart="84.30">
        <route edges="bottom0A0.250.00"/>
    </vehicle>
    <vehicle id="190" type="passenger" depart="84.55">
        <route edges="bottom0A0.250.00"/>
    </vehicle>
    <vehicle id="193" type="passenger" depart="85.55">
        <route edges="top0A0 top0A0.250.00 A0right0"/>
    </vehicle>
    <vehicle id="194" type="passenger" depart="86.40">
        <route edges="bottom0A0.250.00 A0top0"/>
    </vehicle>
    <vehicle id="195" type="passenger" depart="86.50">
        <route edges="top0A0.250.00 A0right0"/>
    </vehicle>
    <vehicle id="198" type="passenger" depart="88.50">
        <route edges="top0A0.250.00 A0right0"/>
    </vehicle>
    <vehicle id="199" type="passenger" depart="88.70">
        <route edges="right0A0.250.00 A0top0"/>
    </vehicle>
    <vehicle id="200" type="passenger" depart="89.05">
        <route edges="right0A0.250.00 A0bottom0"/>
    </vehicle>
    <vehicle id="203" type="passenger" depart="91.40">
        <route edges="top0A0 top0A0.250.00 A0right0"/>
    </vehicle>
    <vehicle id="204" type="passenger" depart="92.40">
        <route edges="left0A0 left0A0.250.00 A0top0"/>
    </vehicle>
    <vehicle id="207" type="passenger" depart="93.60">
        <route edges="top0A0.250.00"/>
    </vehicle>
    <vehicle id="208" type="passenger" depart="94.75">
        <route edges="bottom0A0 bottom0A0.250.00 A0right0"/>
    </vehicle>
    <vehicle id="209" type="passenger" depart="94.75">
        <route edges="left0A0 left0A0.250.00 A0bottom0"/>
    </vehicle>
    <vehicle id="215" type="passenger" depart="97.60">
        <route edges="right0A0 right0A0.250.00 A0left0"/>
    </vehicle>
    <vehicle id="216" type="passenger" depart="97.65">
        <route edges="left0A0.250.00 A0bottom0"/>
    </vehicle>
    <vehicle id="217" type="passenger" depart="97.70">
        <route edges="bottom0A0.250.00 A0top0"/>
    </vehicle>
    <vehicle id="218" type="passenger" depart="98.65">
        <route edges="right0A0 right0A0.250.00 A0left0"/>
    </vehicle>
    <vehicle id="224" type="passenger" depart="101.00">
        <route edges="top0A0.250.00 A0bottom0"/>
    </vehicle>
    <vehicle id="228" type="passenger" depart="101.35">
        <route edges="bottom0A0 bottom0A0.250.00 A0left0"/>
    </vehicle>
    <vehicle id="229" type="passenger" depart="102.05">
        <route edges="top0A0.250.00 A0right0"/>
    </vehicle>
    <vehicle id="230" type="passenger" depart="102.45">
        <route edges="left0A0.250.00 A0right0"/>
    </vehicle>
    <vehicle id="231" type="passenger" depart="102.95">
        <route edges="top0A0 top0A0.250.00 A0left0"/>
    </vehicle>
    <vehicle id="232" type="passenger" depart="103.15">
        <route edges="top0A0 top0A0.250.00 A0left0"/>
    </vehicle>
    <vehicle id="235" type="passenger" depart="104.65">
        <route edges="bottom0A0.250.00 A0top0"/>
    </vehicle>
    <vehicle id="237" type="passenger" depart="106.55">
        <route edges="left0A0.250.00 A0top0"/>
    </vehicle>
    <vehicle id="239" type="passenger" depart="107.35">
        <route edges="left0A0.250.00 A0right0"/>
    </vehicle>
    <vehicle id="246" type="passenger" depart="110.70">
        <route edges="bottom0A0 bottom0A0.250.00 A0right0"/>
    </vehicle>
    <vehicle id="247" type="passenger" depart="110.80">
        <route edges="bottom0A0.250.00 A0right0"/>
    </vehicle>
    <vehicle id="248" type="passenger" depart="110.80">
        <route edges="top0A0.250.00 A0right0"/>
    </vehicle>
    <vehicle id="249" type="passenger" depart="111.55">
        <route edges="left0A0 left0A0.250.00 A0bottom0"/>
    </vehicle>
    <vehicle id="251" type="passenger" depart="112.55">
        <route edges="right0A0.250.00 A0top0"/>
    </vehicle>
    <vehicle id="252" type="passenger" depart="112.60">
        <route edges="top0A0 top0A0.250.00 A0bottom0"/>
    </vehicle>
    <vehicle id="254" type="passenger" depart="113.00">
        <route edges="left0A0.250.00 A0top0"/>
    </vehicle>
    <vehicle id="258" type="passenger" depart="115.45">
        <route edges="right0A0 right0A0.250.00 A0bottom0"/>
    </vehicle>
    <vehicle id="262" type="passenger" depart="118.95">
        <route edges="bottom0A0 bottom0A0.250.00"/>
    </vehicle>
    <vehicle id="263" type="passenger" depart="119.35">
        <route edges="left0A0 left0A0.250.00 A0top0"/>
    </vehicle>
    <vehicle id="264" type="passenger" depart="119.50">
        <route edges="bottom0A0.250.00"/>
    </vehicle>
    <vehicle id="265" type="passenger" depart="120.00">
        <route edges="right0A0 right0A0.250.00 A0top0"/>
    </vehicle>
    <vehicle id="269" type="passenger" depart="121.00">
        <route edges="bottom0A0 bottom0A0.250.00 A0top0"/>
    </vehicle>
    <vehicle id="270" type="passenger" depart="122.55">
        <route edges="right0A0 right0A0.250.00 A0bottom0"/>
    </vehicle>
    <vehicle id="271" type="passenger" depart="122.75">
        <route edges="top0A0.250.00 A0right0"/>
    </vehicle>
    <vehicle id="272" type="passenger" depart="123.90">
        <route edges="bottom0A0 bottom0A0.250.00 A0left0"/>
    </vehicle>
    <vehicle id="273" type="passenger" depart="124.80">
        <route edges="right0A0 right0A0.250.00"/>
    </vehicle>
    <vehicle id="274" type="passenger" depart="124.80">
        <route edges="left0A0 left0A0.250.00 A0bottom0"/>
    </vehicle>
    <vehicle id="276" type="passenger" depart="125.60">
        <route edges="left0A0.250.00 A0right0"/>
    </vehicle>
    <vehicle id="279" type="passenger" depart="127.70">
        <route edges="top0A0 top0A0.250.00 A0bottom0"/>
    </vehicle>
    <vehicle id="283" type="passenger" depart="128.65">
        <route edges="bottom0A0.250.00 A0top0"/>
    </vehicle>
    <vehicle id="284" type="passenger" depart="130.25">
        <route edges="top0A0.250.00 A0bottom0"/>
    </vehicle>
    <vehicle id="287" type="passenger" depart="130.75">
        <route edges="top0A0 top0A0.250.00 A0right0"/>
    </vehicle>
    <vehicle id="288" type="passenger" depart="131.65">
        <route edges="left0A0 left0A0.250.00 A0right0"/>
    </vehicle>
    <vehicle id="289" type="passenger" depart="132.70">
        <route edges="bottom0A0 bottom0A0.250.00 A0top0"/>
    </vehicle>
    <vehicle id="290" type="passenger" depart="133.80">
        <route edges="left0A0 left0A0.250.00 A0bottom0"/>
    </vehicle>
    <vehicle id="292" type="passenger" depart="135.95">
        <route edges="right0A0 right0A0.250.00 A0bottom0"/>
    </vehicle>
    <vehicle id="293" type="passenger" depart="136.65">
        <route edges="bottom0A0 bottom0A0.250.00 A0left0"/>
    </vehicle>
    <vehicle id="295" type="passenger" depart="137.05">
        <route edges="bottom0A0 bottom0A0.250.00 A0top0"/>
    </vehicle>
    <vehicle id="296" type="passenger" depart="137.35">
        <route edges="left0A0 left0A0.250.00 A0top0"/>
    </vehicle>
    <vehicle id="300" type="passenger" depart="140.00">
        <route edges="left0A0.250.00 A0top0"/>
    </vehicle>
    <vehicle id="301" type="passenger" depart="142.50">
        <route edges="bottom0A0 bottom0A0.250.00 A0right0"/>
    </vehicle>
    <vehicle id="304" type="passenger" depart="148.70">
        <route edges="bottom0A0.250.00 A0right0"/>
    </vehicle>
    <vehicle id="305" type="passenger" depart="149.60">
        <route edges="bottom0A0.250.00 A0top0"/>
    </vehicle>
    <vehicle id="306" type="passenger" depart="149.85">
        <route edges="bottom0A0.250.00 A0left0"/>
    </vehicle>
    <vehicle id="308" type="passenger" depart="150.25">
        <route edges="top0A0 top0A0.250.00"/>
    </vehicle>
    <vehicle id="310" type="passenger" depart="150.95">
        <route edges="left0A0.250.00 A0bottom0"/>
    </vehicle>
    <vehicle id="311" type="passenger" depart="151.10">
        <route edges="bottom0A0 bottom0A0.250.00 A0right0"/>
    </vehicle>
    <vehicle id="312" type="passenger" depart="151.40">
        <route edges="top0A0 top0A0.250.00 A0left0"/>
    </vehicle>
    <vehicle id="313" type="passenger" depart="152.25">
        <route edges="left0A0 left0A0.250.00 A0bottom0"/>
    </vehicle>
    <vehicle id="315" type="passenger" depart="154.10">
        <route edges="bottom0A0 bottom0A0.250.00"/>
    </vehicle>
    <vehicle id="317" type="passenger" depart="156.50">
        <route edges="bottom0A0 bottom0A0.250.00"/>
    </vehicle>
    <vehicle id="319" type="passenger" depart="157.60">
        <route edges="right0A0.250.00 A0left0"/>
    </vehicle>
    <vehicle id="320" type="passenger" depart="158.65">
        <route edges="right0A0.250.00"/>
    </vehicle>
    <vehicle id="325" type="passenger" depart="160.55">
        <route edges="right0A0 right0A0.250.00 A0top0"/>
    </vehicle>
    <vehicle id="326" type="passenger" depart="160.55">
        <route edges="bottom0A0.250.00 A0top0"/>
    </vehicle>
    <vehicle id="328" type="passenger" depart="160.90">
        <route edges="left0A0.250.00 A0right0"/>
    </vehicle>
    <vehicle id="330" type="passenger" depart="161.00">
        <route edges="bottom0A0 bottom0A0.250.00 A0left0"/>
    </vehicle>
    <vehicle id="331" type="passenger" depart="161.80">
        <route edges="left0A0 left0A0.250.00 A0top0"/>
    </vehicle>
    <vehicle id="333" type="passenger" depart="162.25">
        <route edges="bottom0A0.250.00 A0left0"/>
    </vehicle>
    <vehicle id="335" type="passenger" depart="162.45">
        <route edges="top0A0 top0A0.250.00 A0left0"/>
    </vehicle>
    <vehicle id="338" type="passenger" depart="164.55">
        <route edges="left0A0 left0A0.250.00 A0bottom0"/>
    </vehicle>
    <vehicle id="339" type="passenger" depart="164.70">
        <route edges="left0A0 left0A0.250.00 A0right0"/>
    </vehicle>
    <vehicle id="340" type="passenger" depart="164.75">
        <route edges="top0A0 top0A0.250.00 A0right0"/>
    </vehicle>
    <vehicle id="341" type="passenger" depart="164.85">
        <route edges="right0A0 right0A0.250.00"/>
    </vehicle>
    <vehicle id="342" type="passenger" depart="165.85">
        <route edges="right0A0 right0A0.250.00 A0bottom0"/>
    </vehicle>
    <vehicle id="345" type="passenger" depart="166.30">
        <route edges="top0A0.250.00"/>
    </vehicle>
    <vehicle id="347" type="passenger" depart="168.30">
        <route edges="top0A0 top0A0.250.00 A0left0"/>
    </vehicle>
    <vehicle id="350" type="passenger" depart="170.80">
        <route edges="left0A0.250.00"/>
    </vehicle>
    <vehicle id="352" type="passenger" depart="171.70">
        <route edges="top0A0.250.00 A0right0"/>
    </vehicle>
    <vehicle id="353" type="passenger" depart="172.10">
        <route edges="right0A0 right0A0.250.00 A0top0"/>
    </vehicle>
    <vehicle id="361" type="passenger" depart="175.00">
        <route edges="left0A0.250.00"/>
    </vehicle>
    <vehicle id="362" type="passenger" depart="175.25">
        <route edges="right0A0.250.00 A0top0"/>
    </vehicle>
    <vehicle id="363" type="passenger" depart="175.70">
        <route edges="bottom0A0 bottom0A0.250.00 A0left0"/>
    </vehicle>
    <vehicle id="364" type="passenger" depart="176.30">
        <route edges="right0A0.250.00"/>
    </vehicle>
    <vehicle id="365" type="passenger" depart="176.70">
        <route edges="bottom0A0.250.00 A0right0"/>
    </vehicle>
    <vehicle id="366" type="passenger" depart="177.00">
        <route edges="top0A0.250.00"/>
    </vehicle>
    <vehicle id="368" type="passenger" depart="178.20">
        <route edges="bottom0A0.250.00 A0left0"/>
    </vehicle>
    <vehicle id="369" type="passenger" depart="178.85">
        <route edges="right0A0 right0A0.250.00"/>
    </vehicle>
    <vehicle id="373" type="passenger" depart="180.30">
        <route edges="left0A0.250.00 A0top0"/>
    </vehicle>
    <vehicle id="378" type="passenger" depart="181.05">
        <route edges="right0A0 right0A0.250.00 A0left0"/>
    </vehicle>
    <vehicle id="379" type="passenger" depart="181.35">
        <route edges="bottom0A0.250.00 A0right0"/>
    </vehicle>
    <vehicle id="383" type="passenger" depart="182.60">
        <route edges="left0A0.250.00"/>
    </vehicle>
    <vehicle id="384" type="passenger" depart="182.65">
        <route edges="bottom0A0 bottom0A0.250.00 A0top0"/>
    </vehicle>
    <vehicle id="386" type="passenger" depart="183.25">
        <route edges="right0A0.250.00 A0bottom0"/>
    </vehicle>
    <vehicle id="391" type="passenger" depart="184.15">
        <route edges="right0A0 right0A0.250.00 A0bottom0"/>
    </vehicle>
    <vehicle id="392" type="passenger" depart="184.20">
        <route edges="left0A0.250.00 A0top0"/>
    </vehicle>
    <vehicle id="394" type="passenger" depart="185.15">
        <route edges="bottom0A0.250.00"/>
    </vehicle>
    <vehicle id="397" type="passenger" depart="185.95">
        <route edges="left0A0.250.00 A0top0"/>
    </vehicle>
    <vehicle id="398" type="passenger" depart="186.30">
        <route edges="bottom0A0.250.00 A0top0"/>
    </vehicle>
    <vehicle id="401" type="passenger" depart="187.75">
        <route edges="bottom0A0.250.00 A0left0"/>
    </vehicle>
    <vehicle id="403" type="passenger" depart="188.35">
        <route edges="left0A0 left0A0.250.00"/>
    </vehicle>
    <vehicle id="405" type="passenger" depart="190.85">
        <route edges="left0A0 left0A0.250.00 A0top0"/>
    </vehicle>
    <vehicle id="406" type="passenger" depart="191.00">
        <route edges="top0A0 top0A0.250.00"/>
    </vehicle>
    <vehicle id="407" type="passenger" depart="191.95">
        <route edges="right0A0 right0A0.250.00 A0bottom0"/>
    </vehicle>
    <vehicle id="410" type="passenger" depart="193.95">
        <route edges="bottom0A0.250.00"/>
    </vehicle>
    <vehicle id="413" type="passenger" depart="195.15">
        <route edges="left0A0 left0A0.250.00 A0top0"/>
    </vehicle>
    <vehicle id="414" type="passenger" depart="195.70">
        <route edges="top0A0 top0A0.250.00"/>
    </vehicle>
    <vehicle id="415" type="passenger" depart="195.95">
        <route edges="bottom0A0.250.00"/>
    </vehicle>
    <vehicle id="416" type="passenger" depart="196.15">
        <route edges="left0A0.250.00"/>
    </vehicle>
    <vehicle id="417" type="passenger" depart="196.70">
        <route edges="left0A0.250.00"/>
    </vehicle>
    <vehicle id="418" type="passenger" depart="196.75">
        <route edges="right0A0.250.00 A0bottom0"/>
    </vehicle>
    <vehicle id="419" type="passenger" depart="197.25">
        <route edges="bottom0A0 bottom0A0.250.00 A0left0"/>
    </vehicle>
    <vehicle id="429" type="passenger" depart="200.20">
        <route edges="top0A0.250.00 A0right0"/>
    </vehicle>
    <vehicle id="431" type="passenger" depart="201.50">
        <route edges="right0A0.250.00"/>
    </vehicle>
    <vehicle id="432" type="passenger" depart="201.65">
        <route edges="right0A0 right0A0.250.00"/>
    </vehicle>
    <vehicle id="433" type="passenger" depart="202.30">
        <route edges="top0A0 top0A0.250.00"/>
    </vehicle>
    <vehicle id="435" type="passenger" depart="203.05">
        <route edges="right0A0 right0A0.250.00 A0bottom0"/>
    </vehicle>
    <vehicle id="437" type="passenger" depart="203.30">
        <route edges="right0A0 right0A0.250.00 A0left0"/>
    </vehicle>
    <vehicle id="440" type="passenger" depart="204.20">
        <route edges="right0A0.250.00"/>
    </vehicle>
    <vehicle id="441" type="passenger" depart="204.30">
        <route edges="right0A0 right0A0.250.00 A0bottom0"/>
    </vehicle>
    <vehicle id="442" type="passenger" depart="204.40">
        <route edges="left0A0 left0A0.250.00 A0top0"/>
    </vehicle>
    <vehicle id="444" type="passenger" depart="204.95">
        <route edges="top0A0 top0A0.250.00 A0left0"/>
    </vehicle>
    <vehicle id="447" type="passenger" depart="206.85">
        <route edges="top0A0 top0A0.250.00 A0left0"/>
    </vehicle>
    <vehicle id="448" type="passenger" depart="207.15">
        <route edges="bottom0A0 bottom0A0.250.00"/>
    </vehicle>
    <vehicle id="450" type="passenger" depart="208.35">
        <route edges="left0A0.250.00 A0top0"/>
    </vehicle>
    <vehicle id="451" type="passenger" depart="209.05">
        <route edges="left0A0.250.00"/>
    </vehicle>
    <vehicle id="453" type="passenger" depart="211.00">
        <route edges="right0A0 right0A0.250.00 A0top0"/>
    </vehicle>
    <vehicle id="454" type="passenger" depart="212.05">
        <route edges="right0A0.250.00 A0bottom0"/>
    </vehicle>
    <vehicle id="457" type="passenger" depart="212.20">
        <route edges="right0A0.250.00 A0top0"/>
    </vehicle>
    <vehicle id="458" type="passenger" depart="212.50">
        <route edges="top0A0.250.00 A0left0"/>
    </vehicle>
    <vehicle id="460" type="passenger" depart="213.90">
        <route edges="left0A0.250.00 A0bottom0"/>
    </vehicle>
    <vehicle id="462" type="passenger" depart="214.20">
        <route edges="right0A0 right0A0.250.00"/>
    </vehicle>
    <vehicle id="463" type="passenger" depart="214.70">
        <route edges="top0A0.250.00 A0bottom0"/>
    </vehicle>
    <vehicle id="464" type="passenger" depart="215.05">
        <route edges="bottom0A0 bottom0A0.250.00 A0top0"/>
    </vehicle>
    <vehicle id="467" type="passenger" depart="217.10">
        <route edges="bottom0A0.250.00 A0right0"/>
    </vehicle>
    <vehicle id="468" type="passenger" depart="217.40">
        <route edges="right0A0 right0A0.250.00"/>
    </vehicle>
    <vehicle id="469" type="passenger" depart="217.55">