<?xml version="1.0" encoding="UTF-8"?>

<!-- generated on 2023-04-26 16:56:37.815856 by randomTrips.py UNKNOWN
<configuration>
    <begin value="0"/>
    <end value="900"/>
    <insertion-rate value="8000.0"/>
    <net-file value="/home/franky3er/Documents/code/HieraGLight/scenarios/grid/1x1-500m/train/9-scenario/network.net.xml"/>
    <random value="True"/>
    <random-depart value="True"/>
    <route-file value="/home/franky3er/Documents/code/HieraGLight/scenarios/grid/1x1-500m/train/9-scenario/routes.rou.xml"/>
    <seed value="9"/>
    <output-trip-file value="/home/franky3er/Documents/code/HieraGLight/scenarios/grid/1x1-500m/train/9-scenario/trips.trips.xml"/>
    <vehicle-class value="passenger"/>
</configuration>
-->

<routes xmlns:xsi="http://www.w3.org/2001/XMLSchema-instance" xsi:noNamespaceSchemaLocation="http://sumo.dlr.de/xsd/routes_file.xsd">
    <vType id="passenger" vClass="passenger"/>
    <trip id="0" depart="0.10" from="right0A0.250.00" to="A0right0" type="passenger"/>
    <trip id="1" depart="0.20" from="bottom0A0" to="top0A0.250.00" type="passenger"/>
    <trip id="2" depart="0.20" from="left0A0.250.00" to="right0A0.250.00" type="passenger"/>
    <trip id="3" depart="0.55" from="right0A0.250.00" to="left0A0.250.00" type="passenger"/>
    <trip id="4" depart="0.85" from="top0A0.250.00" to="A0right0" type="passenger"/>
    <trip id="5" depart="1.15" from="left0A0" to="A0right0" type="passenger"/>
    <trip id="6" depart="2.40" from="right0A0" to="A0bottom0" type="passenger"/>
    <trip id="7" depart="2.60" from="bottom0A0" to="A0top0" type="passenger"/>
    <trip id="8" depart="3.35" from="top0A0" to="bottom0A0.250.00" type="passenger"/>
    <trip id="9" depart="3.80" from="top0A0" to="bottom0A0.250.00" type="passenger"/>
    <trip id="10" depart="4.20" from="bottom0A0" to="right0A0.250.00" type="passenger"/>
    <trip id="11" depart="4.70" from="right0A0" to="A0top0" type="passenger"/>
    <trip id="12" depart="5.20" from="top0A0.250.00" to="A0right0" type="passenger"/>
    <trip id="13" depart="5.45" from="right0A0" to="top0A0.250.00" type="passenger"/>
    <trip id="14" depart="5.55" from="top0A0" to="A0left0" type="passenger"/>
    <trip id="15" depart="6.10" from="left0A0" to="A0bottom0" type="passenger"/>
    <trip id="16" depart="6.15" from="bottom0A0.250.00" to="A0top0" type="passenger"/>
    <trip id="17" depart="6.40" from="right0A0" to="A0top0" type="passenger"/>
    <trip id="18" depart="7.50" from="top0A0.250.00" to="A0left0" type="passenger"/>
    <trip id="19" depart="7.65" from="bottom0A0" to="top0A0.250.00" type="passenger"/>
    <trip id="20" depart="7.90" from="top0A0" to="A0bottom0" type="passenger"/>
    <trip id="21" depart="7.95" from="bottom0A0.250.00" to="A0right0" type="passenger"/>
    <trip id="22" depart="8.70" from="right0A0.250.00" to="left0A0.250.00" type="passenger"/>
    <trip id="23" depart="8.75" from="right0A0.250.00" to="bottom0A0.250.00" type="passenger"/>
    <trip id="24" depart="9.35" from="right0A0.250.00" to="A0bottom0" type="passenger"/>
    <trip id="25" depart="9.65" from="left0A0.250.00" to="right0A0.250.00" type="passenger"/>
    <trip id="26" depart="10.05" from="right0A0" to="A0left0" type="passenger"/>
    <trip id="27" depart="10.10" from="left0A0.250.00" to="A0right0" type="passenger"/>
    <trip id="28" depart="10.60" from="bottom0A0" to="bottom0A0.250.00" type="passenger"/>
    <trip id="29" depart="11.20" from="bottom0A0.250.00" to="bottom0A0.250.00" type="passenger"/>
    <trip id="30" depart="11.65" from="left0A0" to="A0left0" type="passenger"/>
    <trip id="31" depart="12.65" from="right0A0" to="A0right0" type="passenger"/>
    <trip id="32" depart="13.20" from="top0A0.250.00" to="bottom0A0.250.00" type="passenger"/>
    <trip id="33" depart="15.65" from="top0A0.250.00" to="A0bottom0" type="passenger"/>
    <trip id="34" depart="15.75" from="bottom0A0" to="right0A0.250.00" type="passenger"/>
    <trip id="35" depart="15.80" from="top0A0" to="left0A0.250.00" type="passenger"/>
    <trip id="36" depart="15.90" from="bottom0A0.250.00" to="A0right0" type="passenger"/>
    <trip id="37" depart="17.85" from="bottom0A0.250.00" to="A0top0" type="passenger"/>
    <trip id="38" depart="18.35" from="left0A0" to="A0top0" type="passenger"/>
    <trip id="39" depart="19.45" from="bottom0A0" to="A0left0" type="passenger"/>
    <trip id="40" depart="20.75" from="top0A0.250.00" to="top0A0.250.00" type="passenger"/>
    <trip id="41" depart="21.30" from="right0A0" to="A0right0" type="passenger"/>
    <trip id="42" depart="21.30" from="left0A0.250.00" to="top0A0.250.00" type="passenger"/>
    <trip id="43" depart="21.70" from="left0A0" to="top0A0.250.00" type="passenger"/>
    <trip id="44" depart="22.00" from="left0A0" to="A0bottom0" type="passenger"/>
    <trip id="45" depart="23.35" from="left0A0.250.00" to="right0A0.250.00" type="passenger"/>
    <trip id="46" depart="23.65" from="top0A0" to="A0bottom0" type="passenger"/>
    <trip id="47" depart="23.75" from="left0A0.250.00" to="A0left0" type="passenger"/>
    <trip id="48" depart="24.00" from="left0A0.250.00" to="A0top0" type="passenger"/>
    <trip id="49" depart="24.85" from="left0A0.250.00" to="A0right0" type="passenger"/>
    <trip id="50" depart="25.15" from="top0A0.250.00" to="A0left0" type="passenger"/>
    <trip id="51" depart="25.25" from="right0A0" to="top0A0.250.00" type="passenger"/>
    <trip id="52" depart="25.85" from="bottom0A0" to="top0A0.250.00" type="passenger"/>
    <trip id="53" depart="26.30" from="right0A0.250.00" to="bottom0A0.250.00" type="passenger"/>
    <trip id="54" depart="26.45" from="bottom0A0.250.00" to="A0bottom0" type="passenger"/>
    <trip id="55" depart="26.65" from="left0A0.250.00" to="right0A0.250.00" type="passenger"/>
    <trip id="56" depart="26.80" from="right0A0" to="A0left0" type="passenger"/>
    <trip id="57" depart="28.30" from="top0A0" to="A0left0" type="passenger"/>
    <trip id="58" depart="28.65" from="left0A0.250.00" to="A0left0" type="passenger"/>
    <trip id="59" depart="29.40" from="top0A0" to="left0A0.250.00" type="passenger"/>
    <trip id="60" depart="30.15" from="top0A0" to="left0A0.250.00" type="passenger"/>
    <trip id="61" depart="30.20" from="right0A0.250.00" to="A0right0" type="passenger"/>
    <trip id="62" depart="30.35" from="bottom0A0.250.00" to="A0right0" type="passenger"/>
    <trip id="63" depart="30.60" from="left0A0" to="A0right0" type="passenger"/>
    <trip id="64" depart="31.15" from="top0A0.250.00" to="left0A0.250.00" type="passenger"/>
    <trip id="65" depart="31.65" from="right0A0.250.00" to="A0left0" type="passenger"/>
    <trip id="66" depart="31.80" from="top0A0" to="A0bottom0" type="passenger"/>
    <trip id="67" depart="31.85" from="top0A0.250.00" to="A0right0" type="passenger"/>
    <trip id="68" depart="33.25" from="left0A0.250.00" to="A0top0" type="passenger"/>
    <trip id="69" depart="33.75" from="left0A0.250.00" to="left0A0.250.00" type="passenger"/>
    <trip id="70" depart="34.95" from="right0A0.250.00" to="top0A0.250.00" type="passenger"/>
    <trip id="71" depart="35.55" from="right0A0" to="bottom0A0.250.00" type="passenger"/>
    <trip id="72" depart="36.95" from="top0A0.250.00" to="A0top0" type="passenger"/>
    <trip id="73" depart="37.45" from="top0A0" to="left0A0.250.00" type="passenger"/>
    <trip id="74" depart="37.65" from="left0A0.250.00" to="left0A0.250.00" type="passenger"/>
    <trip id="75" depart="38.75" from="bottom0A0" to="right0A0.250.00" type="passenger"/>
    <trip id="76" depart="39.10" from="top0A0" to="right0A0.250.00" type="passenger"/>
    <trip id="77" depart="39.45" from="left0A0.250.00" to="A0left0" type="passenger"/>
    <trip id="78" depart="39.45" from="right0A0.250.00" to="right0A0.250.00" type="passenger"/>
    <trip id="79" depart="39.60" from="right0A0.250.00" to="A0bottom0" type="passenger"/>
    <trip id="80" depart="39.95" from="left0A0.250.00" to="A0right0" type="passenger"/>
    <trip id="81" depart="40.20" from="left0A0" to="right0A0.250.00" type="passenger"/>
    <trip id="82" depart="40.25" from="right0A0" to="right0A0.250.00" type="passenger"/>
    <trip id="83" depart="40.60" from="left0A0" to="A0bottom0" type="passenger"/>
    <trip id="84" depart="41.75" from="top0A0" to="A0top0" type="passenger"/>
    <trip id="85" depart="41.95" from="right0A0.250.00" to="top0A0.250.00" type="passenger"/>
    <trip id="86" depart="42.50" from="right0A0.250.00" to="top0A0.250.00" type="passenger"/>
    <trip id="87" depart="42.50" from="top0A0" to="bottom0A0.250.00" type="passenger"/>
    <trip id="88" depart="42.60" from="left0A0" to="A0right0" type="passenger"/>
    <trip id="89" depart="43.80" from="bottom0A0.250.00" to="top0A0.250.00" type="passenger"/>
    <trip id="90" depart="43.90" from="right0A0" to="right0A0.250.00" type="passenger"/>
    <trip id="91" depart="44.20" from="bottom0A0.250.00" to="right0A0.250.00" type="passenger"/>
    <trip id="92" depart="45.55" from="top0A0" to="right0A0.250.00" type="passenger"/>
    <trip id="93" depart="45.90" from="bottom0A0" to="top0A0.250.00" type="passenger"/>
    <trip id="94" depart="46.50" from="top0A0" to="A0right0" type="passenger"/>
    <trip id="95" depart="47.55" from="bottom0A0" to="right0A0.250.00" type="passenger"/>
    <trip id="96" depart="48.10" from="right0A0" to="top0A0.250.00" type="passenger"/>
    <trip id="97" depart="48.80" from="left0A0.250.00" to="A0right0" type="passenger"/>
    <trip id="98" depart="48.95" from="bottom0A0" to="top0A0.250.00" type="passenger"/>
    <trip id="99" depart="49.60" from="right0A0" to="top0A0.250.00" type="passenger"/>
    <trip id="100" depart="50.60" from="right0A0.250.00" to="A0right0" type="passenger"/>
    <trip id="101" depart="52.20" from="bottom0A0" to="A0right0" type="passenger"/>
    <trip id="102" depart="52.55" from="bottom0A0.250.00" to="bottom0A0.250.00" type="passenger"/>
    <trip id="103" depart="53.35" from="right0A0" to="A0right0" type="passenger"/>
    <trip id="104" depart="54.10" from="top0A0.250.00" to="A0right0" type="passenger"/>
    <trip id="105" depart="54.55" from="bottom0A0.250.00" to="top0A0.250.00" type="passenger"/>
    <trip id="106" depart="54.60" from="left0A0" to="A0top0" type="passenger"/>
    <trip id="107" depart="54.70" from="bottom0A0" to="A0right0" type="passenger"/>
    <trip id="108" depart="55.00" from="left0A0.250.00" to="top0A0.250.00" type="passenger"/>
    <trip id="109" depart="56.15" from="left0A0.250.00" to="A0right0" type="passenger"/>
    <trip id="110" depart="56.20" from="left0A0.250.00" to="A0left0" type="passenger"/>
    <trip id="111" depart="56.40" from="top0A0" to="left0A0.250.00" type="passenger"/>
    <trip id="112" depart="56.70" from="left0A0" to="right0A0.250.00" type="passenger"/>
    <trip id="113" depart="57.20" from="bottom0A0.250.00" to="A0top0" type="passenger"/>
    <trip id="114" depart="57.35" from="bottom0A0.250.00" to="A0top0" type="passenger"/>
    <trip id="115" depart="57.90" from="right0A0" to="right0A0.250.00" type="passenger"/>
    <trip id="116" depart="57.90" from="bottom0A0.250.00" to="A0right0" type="passenger"/>
    <trip id="117" depart="58.20" from="bottom0A0" to="right0A0.250.00" type="passenger"/>
    <trip id="118" depart="58.40" from="top0A0.250.00" to="bottom0A0.250.00" type="passenger"/>
    <trip id="119" depart="58.50" from="left0A0" to="left0A0.250.00" type="passenger"/>
    <trip id="120" depart="58.70" from="bottom0A0" to="A0right0" type="passenger"/>
    <trip id="121" depart="58.75" from="left0A0" to="top0A0.250.00" type="passenger"/>
    <trip id="122" depart="58.80" from="right0A0.250.00" to="A0top0" type="passenger"/>
    <trip id="123" depart="58.90" from="left0A0.250.00" to="top0A0.250.00" type="passenger"/>
    <trip id="124" depart="59.15" from="left0A0.250.00" to="top0A0.250.00" type="passenger"/>
    <trip id="125" depart="59.40" from="right0A0" to="bottom0A0.250.00" type="passenger"/>
    <trip id="126" depart="60.10" from="left0A0" to="left0A0.250.00" type="passenger"/>
    <trip id="127" depart="60.90" from="right0A0" to="bottom0A0.250.00" type="passenger"/>
    <trip id="128" depart="61.05" from="bottom0A0.250.00" to="A0top0" type="passenger"/>
    <trip id="129" depart="61.25" from="bottom0A0" to="A0right0" type="passenger"/>
    <trip id="130" depart="61.70" from="left0A0" to="bottom0A0.250.00" type="passenger"/>
    <trip id="131" depart="61.80" from="bottom0A0" to="right0A0.250.00" type="passenger"/>
    <trip id="132" depart="62.20" from="right0A0.250.00" to="bottom0A0.250.00" type="passenger"/>
    <trip id="133" depart="62.25" from="bottom0A0" to="left0A0.250.00" type="passenger"/>
    <trip id="134" depart="62.30" from="right0A0.250.00" to="A0bottom0" type="passenger"/>
    <trip id="135" depart="62.40" from="top0A0.250.00" to="bottom0A0.250.00" type="passenger"/>
    <trip id="136" depart="62.45" from="top0A0" to="A0bottom0" type="passenger"/>
    <trip id="137" depart="63.20" from="left0A0" to="A0left0" type="passenger"/>
    <trip id="138" depart="63.45" from="top0A0.250.00" to="A0right0" type="passenger"/>
    <trip id="139" depart="63.55" from="left0A0" to="A0bottom0" type="passenger"/>
    <trip id="140" depart="63.80" from="left0A0" to="bottom0A0.250.00" type="passenger"/>
    <trip id="141" depart="64.80" from="top0A0" to="A0left0" type="passenger"/>
    <trip id="142" depart="64.95" from="left0A0.250.00" to="top0A0.250.00" type="passenger"/>
    <trip id="143" depart="65.35" from="right0A0" to="A0top0" type="passenger"/>
    <trip id="144" depart="65.80" from="top0A0.250.00" to="bottom0A0.250.00" type="passenger"/>
    <trip id="145" depart="65.95" from="top0A0.250.00" to="top0A0.250.00" type="passenger"/>
    <trip id="146" depart="66.00" from="top0A0.250.00" to="A0right0" type="passenger"/>
    <trip id="147" depart="66.00" from="bottom0A0" to="right0A0.250.00" type="passenger"/>
    <trip id="148" depart="66.30" from="bottom0A0" to="left0A0.250.00" type="passenger"/>
    <trip id="149" depart="66.80" from="top0A0" to="A0left0" type="passenger"/>
    <trip id="150" depart="66.85" from="right0A0.250.00" to="top0A0.250.00" type="passenger"/>
    <trip id="151" depart="67.25" from="left0A0" to="A0right0" type="passenger"/>
    <trip id="152" depart="67.35" from="top0A0.250.00" to="bottom0A0.250.00" type="passenger"/>
    <trip id="153" depart="67.45" from="right0A0.250.00" to="A0top0" type="passenger"/>
    <trip id="154" depart="68.00" from="left0A0.250.00" to="left0A0.250.00" type="passenger"/>
    <trip id="155" depart="68.00" from="top0A0" to="A0right0" type="passenger"/>
    <trip id="156" depart="68.05" from="bottom0A0.250.00" to="right0A0.250.00" type="passenger"/>
    <trip id="157" depart="68.45" from="right0A0.250.00" to="bottom0A0.250.00" type="passenger"/>
    <trip id="158" depart="68.65" from="left0A0" to="top0A0.250.00" type="passenger"/>
    <trip id="159" depart="69.10" from="top0A0.250.00" to="top0A0.250.00" type="passenger"/>
    <trip id="160" depart="70.10" from="top0A0" to="A0bottom0" type="passenger"/>
    <trip id="161" depart="70.30" from="left0A0" to="left0A0.250.00" type="passenger"/>
    <trip id="162" depart="71.55" from="right0A0.250.00" to="A0bottom0" type="passenger"/>
    <trip id="163" depart="71.65" from="left0A0" to="left0A0.250.00" type="passenger"/>
    <trip id="164" depart="71.95" from="top0A0" to="top0A0.250.00" type="passenger"/>
    <trip id="165" depart="72.45" from="right0A0" to="A0bottom0" type="passenger"/>
    <trip id="166" depart="72.95" from="top0A0.250.00" to="top0A0.250.00" type="passenger"/>
    <trip id="167" depart="73.35" from="bottom0A0" to="left0A0.250.00" type="passenger"/>
    <trip id="168" depart="73.45" from="right0A0" to="bottom0A0.250.00" type="passenger"/>
    <trip id="169" depart="74.85" from="left0A0.250.00" to="bottom0A0.250.00" type="passenger"/>
    <trip id="170" depart="74.85" from="top0A0.250.00" to="top0A0.250.00" type="passenger"/>
    <trip id="171" depart="74.85" from="bottom0A0" to="left0A0.250.00" type="passenger"/>
    <trip id="172" depart="74.90" from="top0A0" to="A0left0" type="passenger"/>
    <trip id="173" depart="75.05" from="top0A0" to="A0left0" type="passenger"/>
    <trip id="174" depart="75.20" from="top0A0" to="bottom0A0.250.00" type="passenger"/>
    <trip id="175" depart="75.40" from="top0A0.250.00" to="right0A0.250.00" type="passenger"/>
    <trip id="176" depart="76.00" from="left0A0.250.00" to="A0bottom0" type="passenger"/>
    <trip id="177" depart="76.20" from="left0A0" to="A0top0" type="passenger"/>
    <trip id="178" depart="76.70" from="top0A0.250.00" to="A0right0" type="passenger"/>
    <trip id="179" depart="77.15" from="bottom0A0.250.00" to="left0A0.250.00" type="passenger"/>
    <trip id="180" depart="77.30" from="top0A0.250.00" to="right0A0.250.00" type="passenger"/>
    <trip id="181" depart="77.45" from="left0A0" to="right0A0.250.00" type="passenger"/>
    <trip id="182" depart="77.55" from="left0A0.250.00" to="A0left0" type="passenger"/>
    <trip id="183" depart="78.20" from="right0A0" to="A0top0" type="passenger"/>
    <trip id="184" depart="79.05" from="bottom0A0" to="left0A0.250.00" type="passenger"/>
    <trip id="185" depart="79.80" from="top0A0" to="right0A0.250.00" type="passenger"/>
    <trip id="186" depart="80.60" from="right0A0.250.00" to="A0left0" type="passenger"/>
    <trip id="187" depart="80.75" from="right0A0.250.00" to="A0top0" type="passenger"/>
    <trip id="188" depart="81.00" from="left0A0.250.00" to="A0right0" type="passenger"/>
    <trip id="189" depart="81.55" from="left0A0.250.00" to="left0A0.250.00" type="passenger"/>
    <trip id="190" depart="82.05" from="right0A0.250.00" to="A0right0" type="passenger"/>
    <trip id="191" depart="82.35" from="right0A0.250.00" to="A0top0" type="passenger"/>
    <trip id="192" depart="82.90" from="right0A0.250.00" to="A0left0" type="passenger"/>
    <trip id="193" depart="83.10" from="left0A0.250.00" to="A0bottom0" type="passenger"/>
    <trip id="194" depart="83.90" from="left0A0.250.00" to="left0A0.250.00" type="passenger"/>
    <trip id="195" depart="84.00" from="left0A0.250.00" to="top0A0.250.00" type="passenger"/>
    <trip id="196" depart="84.65" from="top0A0" to="A0bottom0" type="passenger"/>
    <trip id="197" depart="84.75" from="bottom0A0" to="A0right0" type="passenger"/>
    <trip id="198" depart="84.85" from="left0A0" to="bottom0A0.250.00" type="passenger"/>
    <trip id="199" depart="85.00" from="bottom0A0.250.00" to="A0bottom0" type="passenger"/>
    <trip id="200" depart="85.30" from="right0A0.250.00" to="A0left0" type="passenger"/>
    <trip id="201" depart="85.45" from="left0A0.250.00" to="A0top0" type="passenger"/>
    <trip id="202" depart="85.55" from="top0A0" to="right0A0.250.00" type="passenger"/>
    <trip id="203" depart="86.45" from="bottom0A0" to="right0A0.250.00" type="passenger"/>
    <trip id="204" depart="86.60" from="bottom0A0" to="bottom0A0.250.00" type="passenger"/>
    <trip id="205" depart="86.65" from="bottom0A0.250.00" to="A0top0" type="passenger"/>
    <trip id="206" depart="87.30" from="top0A0" to="A0top0" type="passenger"/>
    <trip id="207" depart="88.05" from="top0A0" to="A0bottom0" type="passenger"/>
    <trip id="208" depart="89.55" from="top0A0" to="right0A0.250.00" type="passenger"/>
    <trip id="209" depart="90.05" from="right0A0.250.00" to="A0bottom0" type="passenger"/>
    <trip id="210" depart="90.65" from="right0A0.250.00" to="A0top0" type="passenger"/>
    <trip id="211" depart="90.75" from="left0A0" to="top0A0.250.00" type="passenger"/>
    <trip id="212" depart="90.90" from="top0A0.250.00" to="A0right0" type="passenger"/>
    <trip id="213" depart="90.95" from="bottom0A0" to="A0top0" type="passenger"/>
    <trip id="214" depart="92.30" from="left0A0" to="bottom0A0.250.00" type="passenger"/>
    <trip id="215" depart="92.75" from="right0A0.250.00" to="A0right0" type="passenger"/>
    <trip id="216" depart="93.30" from="left0A0.250.00" to="bottom0A0.250.00" type="passenger"/>
    <trip id="217" depart="93.35" from="right0A0.250.00" to="A0left0" type="passenger"/>
    <trip id="218" depart="93.35" from="right0A0" to="A0left0" type="passenger"/>
    <trip id="219" depart="93.55" from="left0A0.250.00" to="top0A0.250.00" type="passenger"/>
    <trip id="220" depart="93.70" from="left0A0" to="A0right0" type="passenger"/>
    <trip id="221" depart="93.85" from="right0A0.250.00" to="A0top0" type="passenger"/>
    <trip id="222" depart="94.25" from="top0A0.250.00" to="right0A0.250.00" type="passenger"/>
    <trip id="223" depart="94.75" from="left0A0" to="left0A0.250.00" type="passenger"/>
    <trip id="224" depart="94.95" from="left0A0.250.00" to="A0right0" type="passenger"/>
    <trip id="225" depart="95.05" from="right0A0" to="A0left0" type="passenger"/>
    <trip id="226" depart="95.35" from="bottom0A0" to="top0A0.250.00" type="passenger"/>
    <trip id="227" depart="96.15" from="top0A0" to="top0A0.250.00" type="passenger"/>
    <trip id="228" depart="96.80" from="bottom0A0.250.00" to="top0A0.250.00" type="passenger"/>
    <trip id="229" depart="98.15" from="top0A0" to="A0bottom0" type="passenger"/>
    <trip id="230" depart="98.35" from="right0A0" to="right0A0.250.00" type="passenger"/>
    <trip id="231" depart="98.70" from="top0A0.250.00" to="A0left0" type="passenger"/>
    <trip id="232" depart="99.10" from="left0A0.250.00" to="A0top0" type="passenger"/>
    <trip id="233" depart="99.35" from="left0A0" to="bottom0A0.250.00" type="passenger"/>
    <trip id="234" depart="99.35" from="bottom0A0" to="top0A0.250.00" type="passenger"/>
    <trip id="235" depart="99.40" from="bottom0A0.250.00" to="A0left0" type="passenger"/>
    <trip id="236" depart="99.65" from="top0A0.250.00" to="A0left0" type="passenger"/>
    <trip id="237" depart="100.15" from="bottom0A0" to="A0top0" type="passenger"/>
    <trip id="238" depart="100.15" from="top0A0" to="A0bottom0" type="passenger"/>
    <trip id="239" depart="100.55" from="right0A0" to="left0A0.250.00" type="passenger"/>
    <trip id="240" depart="100.85" from="left0A0.250.00" to="A0bottom0" type="passenger"/>
    <trip id="241" depart="101.40" from="right0A0" to="right0A0.250.00" type="passenger"/>
    <trip id="242" depart="101.55" from="right0A0" to="A0bottom0" type="passenger"/>
    <trip id="243" depart="102.05" from="right0A0.250.00" to="A0bottom0" type="passenger"/>
    <trip id="244" depart="102.15" from="top0A0" to="bottom0A0.250.00" type="passenger"/>
    <trip id="245" depart="103.20" from="left0A0.250.00" to="left0A0.250.00" type="passenger"/>
    <trip id="246" depart="103.35" from="right0A0" to="bottom0A0.250.00" type="passenger"/>
    <trip id="247" depart="103.60" from="right0A0" to="A0top0" type="passenger"/>
    <trip id="248" depart="104.90" from="top0A0" to="bottom0A0.250.00" type="passenger"/>
    <trip id="249" depart="105.05" from="top0A0" to="top0A0.250.00" type="passenger"/>
    <trip id="250" depart="106.00" from="left0A0" to="left0A0.250.00" type="passenger"/>
    <trip id="251" depart="106.25" from="right0A0.250.00" to="bottom0A0.250.00" type="passenger"/>
    <trip id="252" depart="106.45" from="right0A0" to="left0A0.250.00" type="passenger"/>
    <trip id="253" depart="107.10" from="left0A0.250.00" to="left0A0.250.00" type="passenger"/>
    <trip id="254" depart="108.00" from="top0A0.250.00" to="A0bottom0" type="passenger"/>
    <trip id="255" depart="108.15" from="top0A0" to="bottom0A0.250.00" type="passenger"/>
    <trip id="256" depart="108.70" from="top0A0.250.00" to="A0top0" type="passenger"/>
    <trip id="257" depart="109.90" from="bottom0A0.250.00" to="A0top0" type="passenger"/>
    <trip id="258" depart="110.05" from="right0A0" to="A0left0" type="passenger"/>
    <trip id="259" depart="111.65" from="bottom0A0" to="left0A0.250.00" type="passenger"/>
    <trip id="260" depart="112.35" from="top0A0.250.00" to="left0A0.250.00" type="passenger"/>
    <trip id="261" depart="112.55" from="bottom0A0.250.00" to="A0left0" type="passenger"/>
    <trip id="262" depart="112.75" from="right0A0" to="top0A0.250.00" type="passenger"/>
    <trip id="263" depart="113.00" from="right0A0.250.00" to="bottom0A0.250.00" type="passenger"/>
    <trip id="264" depart="113.65" from="bottom0A0.250.00" to="right0A0.250.00" type="passenger"/>
    <trip id="265" depart="113.85" from="bottom0A0.250.00" to="bottom0A0.250.00" type="passenger"/>
    <trip id="266" depart="114.15" from="bottom0A0.250.00" to="A0right0" type="passenger"/>
    <trip id="267" depart="114.60" from="left0A0" to="A0top0" type="passenger"/>
    <trip id="268" depart="114.90" from="right0A0" to="right0A0.250.00" type="passenger"/>
    <trip id="269" depart="115.35" from="top0A0" to="left0A0.250.00" type="passenger"/>
    <trip id="270" depart="115.40" from="bottom0A0" to="A0bottom0" type="passenger"/>
    <trip id="271" depart="116.60" from="left0A0" to="right0A0.250.00" type="passenger"/>
    <trip id="272" depart="118.65" from="bottom0A0" to="A0right0" type="passenger"/>
    <trip id="273" depart="119.20" from="top0A0" to="top0A0.250.00" type="passenger"/>
    <trip id="274" depart="119.40" from="left0A0" to="A0top0" type="passenger"/>
    <trip id="275" depart="120.30" from="top0A0.250.00" to="A0bottom0" type="passenger"/>
    <trip id="276" depart="121.90" from="top0A0.250.00" to="right0A0.250.00" type="passenger"/>
    <trip id="277" depart="122.00" from="top0A0.250.00" to="A0left0" type="passenger"/>
    <trip id="278" depart="122.35" from="top0A0" to="A0bottom0" type="passenger"/>
    <trip id="279" depart="122.50" from="left0A0" to="top0A0.250.00" type="passenger"/>
    <trip id="280" depart="123.10" from="bottom0A0" to="bottom0A0.250.00" type="passenger"/>
    <trip id="281" depart="123.35" from="top0A0" to="right0A0.250.00" type="passenger"/>
    <trip id="282" depart="123.55" from="top0A0" to="left0A0.250.00" type="passenger"/>
    <trip id="283" depart="123.85" from="right0A0" to="left0A0.250.00" type="passenger"/>
    <trip id="284" depart="124.00" from="top0A0.250.00" to="right0A0.250.00" type="passenger"/>
    <trip id="285" depart="124.05" from="right0A0.250.00" to="right0A0.250.00" type="passenger"/>
    <trip id="286" depart="124.25" from="top0A0" to="top0A0.250.00" type="passenger"/>
    <trip id="287" depart="125.35" from="top0A0.250.00" to="A0right0" type="passenger"/>
    <trip id="288" depart="125.50" from="left0A0.250.00" to="top0A0.250.00" type="passenger"/>
    <trip id="289" depart="126.00" from="right0A0.250.00" to="left0A0.250.00" type="passenger"/>
    <trip id="290" depart="126.15" from="bottom0A0" to="top0A0.250.00" type="passenger"/>
    <trip id="291" depart="126.60" from="top0A0" to="bottom0A0.250.00" type="passenger"/>
    <trip id="292" depart="128.55" from="left0A0.250.00" to="left0A0.250.00" type="passenger"/>
    <trip id="293" depart="128.75" from="top0A0.250.00" to="A0bottom0" type="passenger"/>
    <trip id="294" depart="129.40" from="left0A0.250.00" to="top0A0.250.00" type="passenger"/>
    <trip id="295" depart="129.40" from="bottom0A0.250.00" to="A0right0" type="passenger"/>
    <trip id="296" depart="129.55" from="left0A0" to="A0right0" type="passenger"/>
    <trip id="297" depart="130.15" from="bottom0A0" to="A0top0" type="passenger"/>
    <trip id="298" depart="131.25" from="top0A0.250.00" to="A0top0" type="passenger"/>
    <trip id="299" depart="131.40" from="left0A0" to="A0top0" type="passenger"/>
    <trip id="300" depart="131.90" from="top0A0" to="A0right0" type="passenger"/>
    <trip id="301" depart="132.50" from="bottom0A0.250.00" to="right0A0.250.00" type="passenger"/>
    <trip id="302" depart="133.15" from="bottom0A0.250.00" to="A0left0" type="passenger"/>
    <trip id="303" depart="133.45" from="top0A0.250.00" to="A0bottom0" type="passenger"/>
    <trip id="304" depart="133.90" from="left0A0" to="top0A0.250.00" type="passenger"/>
    <trip id="305" depart="134.75" from="top0A0" to="left0A0.250.00" type="passenger"/>
    <trip id="306" depart="135.20" from="bottom0A0" to="A0left0" type="passenger"/>
    <trip id="307" depart="135.25" from="top0A0.250.00" to="A0top0" type="passenger"/>
    <trip id="308" depart="135.55" from="right0A0" to="A0bottom0" type="passenger"/>
    <trip id="309" depart="137.25" from="left0A0.250.00" to="A0left0" type="passenger"/>
    <trip id="310" depart="137.30" from="right0A0.250.00" to="A0right0" type="passenger"/>
    <trip id="311" depart="137.50" from="top0A0" to="top0A0.250.00" type="passenger"/>
    <trip id="312" depart="137.95" from="right0A0.250.00" to="left0A0.250.00" type="passenger"/>
    <trip id="313" depart="138.65" from="top0A0.250.00" to="A0top0" type="passenger"/>
    <trip id="314" depart="138.90" from="top0A0.250.00" to="A0top0" type="passenger"/>
    <trip id="315" depart="139.30" from="left0A0.250.00" to="A0left0" type="passenger"/>
    <trip id="316" depart="139.60" from="left0A0" to="A0right0" type="passenger"/>
    <trip id="317" depart="140.65" from="top0A0.250.00" to="A0right0" type="passenger"/>
    <trip id="318" depart="140.70" from="left0A0" to="A0top0" type="passenger"/>
    <trip id="319" depart="140.85" from="right0A0.250.00" to="A0bottom0" type="passenger"/>
    <trip id="320" depart="141.35" from="right0A0" to="right0A0.250.00" type="passenger"/>
    <trip id="321" depart="141.35" from="top0A0" to="A0bottom0" type="passenger"/>
    <trip id="322" depart="142.30" from="bottom0A0" to="A0left0" type="passenger"/>
    <trip id="323" depart="143.65" from="top0A0.250.00" to="A0right0" type="passenger"/>
    <trip id="324" depart="145.10" from="top0A0.250.00" to="left0A0.250.00" type="passenger"/>
    <trip id="325" depart="146.00" from="top0A0.250.00" to="A0right0" type="passenger"/>
    <trip id="326" depart="146.25" from="top0A0.250.00" to="right0A0.250.00" type="passenger"/>
    <trip id="327" depart="146.25" from="left0A0.250.00" to="A0right0" type="passenger"/>