<?xml version="1.0" encoding="UTF-8"?>

<!-- generated on 2023-04-26 16:56:37.019023 by randomTrips.py UNKNOWN
<configuration>
    <begin value="0"/>
    <end value="900"/>
    <insertion-rate value="8000.0"/>
    <net-file value="/home/franky3er/Documents/code/HieraGLight/scenarios/grid/1x1-500m/train/7-scenario/network.net.xml"/>
    <random value="True"/>
    <random-depart value="True"/>
    <route-file value="/home/franky3er/Documents/code/HieraGLight/scenarios/grid/1x1-500m/train/7-scenario/routes.rou.xml"/>
    <seed value="7"/>
    <output-trip-file value="/home/franky3er/Documents/code/HieraGLight/scenarios/grid/1x1-500m/train/7-scenario/trips.trips.xml"/>
    <vehicle-class value="passenger"/>
</configuration>
-->

<routes xmlns:xsi="http://www.w3.org/2001/XMLSchema-instance" xsi:noNamespaceSchemaLocation="http://sumo.dlr.de/xsd/routes_file.xsd">
    <vType id="passenger" vClass="passenger"/>
    <trip id="0" depart="1.40" from="left0A0.250.00" to="A0left0" type="passenger"/>
    <trip id="1" depart="2.10" from="bottom0A0.250.00" to="A0left0" type="passenger"/>
    <trip id="2" depart="2.20" from="right0A0" to="A0bottom0" type="passenger"/>
    <trip id="3" depart="2.55" from="bottom0A0" to="right0A0.250.00" type="passenger"/>
    <trip id="4" depart="2.70" from="top0A0.250.00" to="right0A0.250.00" type="passenger"/>
    <trip id="5" depart="2.95" from="left0A0" to="A0top0" type="passenger"/>
    <trip id="6" depart="3.00" from="top0A0" to="A0right0" type="passenger"/>
    <trip id="7" depart="3.05" from="right0A0.250.00" to="left0A0.250.00" type="passenger"/>
    <trip id="8" depart="3.35" from="bottom0A0.250.00" to="A0top0" type="passenger"/>
    <trip id="9" depart="3.70" from="bottom0A0" to="left0A0.250.00" type="passenger"/>
    <trip id="10" depart="3.80" from="right0A0.250.00" to="top0A0.250.00" type="passenger"/>
    <trip id="11" depart="4.05" from="top0A0.250.00" to="left0A0.250.00" type="passenger"/>
    <trip id="12" depart="4.35" from="right0A0.250.00" to="top0A0.250.00" type="passenger"/>
    <trip id="13" depart="5.30" from="top0A0" to="A0left0" type="passenger"/>
    <trip id="14" depart="6.55" from="left0A0" to="A0top0" type="passenger"/>
    <trip id="15" depart="6.70" from="left0A0" to="top0A0.250.00" type="passenger"/>
    <trip id="16" depart="6.85" from="right0A0.250.00" to="A0bottom0" type="passenger"/>
    <trip id="17" depart="6.95" from="top0A0.250.00" to="left0A0.250.00" type="passenger"/>
    <trip id="18" depart="7.50" from="bottom0A0.250.00" to="top0A0.250.00" type="passenger"/>
    <trip id="19" depart="7.90" from="bottom0A0" to="A0right0" type="passenger"/>
    <trip id="20" depart="8.90" from="right0A0.250.00" to="A0top0" type="passenger"/>
    <trip id="21" depart="9.25" from="left0A0" to="right0A0.250.00" type="passenger"/>
    <trip id="22" depart="10.10" from="left0A0.250.00" to="right0A0.250.00" type="passenger"/>
    <trip id="23" depart="10.70" from="right0A0.250.00" to="left0A0.250.00" type="passenger"/>
    <trip id="24" depart="12.35" from="left0A0" to="right0A0.250.00" type="passenger"/>
    <trip id="25" depart="12.55" from="right0A0" to="top0A0.250.00" type="passenger"/>
    <trip id="26" depart="12.80" from="right0A0.250.00" to="A0bottom0" type="passenger"/>
    <trip id="27" depart="13.35" from="right0A0" to="A0right0" type="passenger"/>
    <trip id="28" depart="13.95" from="bottom0A0" to="A0left0" type="passenger"/>
    <trip id="29" depart="14.10" from="left0A0" to="left0A0.250.00" type="passenger"/>
    <trip id="30" depart="14.10" from="right0A0" to="A0right0" type="passenger"/>
    <trip id="31" depart="14.45" from="bottom0A0.250.00" to="A0bottom0" type="passenger"/>
    <trip id="32" depart="14.65" from="bottom0A0" to="left0A0.250.00" type="passenger"/>
    <trip id="33" depart="15.65" from="left0A0" to="top0A0.250.00" type="passenger"/>
    <trip id="34" depart="16.00" from="right0A0" to="bottom0A0.250.00" type="passenger"/>
    <trip id="35" depart="16.00" from="left0A0.250.00" to="A0bottom0" type="passenger"/>
    <trip id="36" depart="17.20" from="bottom0A0.250.00" to="right0A0.250.00" type="passenger"/>
    <trip id="37" depart="17.50" from="right0A0.250.00" to="right0A0.250.00" type="passenger"/>
    <trip id="38" depart="17.70" from="right0A0.250.00" to="A0top0" type="passenger"/>
    <trip id="39" depart="17.90" from="bottom0A0" to="A0left0" type="passenger"/>
    <trip id="40" depart="18.10" from="top0A0" to="A0left0" type="passenger"/>
    <trip id="41" depart="18.25" from="right0A0" to="right0A0.250.00" type="passenger"/>
    <trip id="42" depart="19.80" from="left0A0.250.00" to="top0A0.250.00" type="passenger"/>
    <trip id="43" depart="19.90" from="top0A0" to="left0A0.250.00" type="passenger"/>
    <trip id="44" depart="20.15" from="right0A0" to="left0A0.250.00" type="passenger"/>
    <trip id="45" depart="22.30" from="left0A0" to="A0left0" type="passenger"/>
    <trip id="46" depart="22.95" from="bottom0A0" to="bottom0A0.250.00" type="passenger"/>
    <trip id="47" depart="23.25" from="right0A0.250.00" to="bottom0A0.250.00" type="passenger"/>
    <trip id="48" depart="24.15" from="bottom0A0" to="top0A0.250.00" type="passenger"/>
    <trip id="49" depart="24.40" from="right0A0.250.00" to="A0right0" type="passenger"/>
    <trip id="50" depart="25.00" from="left0A0" to="A0bottom0" type="passenger"/>
    <trip id="51" depart="25.10" from="top0A0.250.00" to="right0A0.250.00" type="passenger"/>
    <trip id="52" depart="25.20" from="top0A0.250.00" to="A0left0" type="passenger"/>
    <trip id="53" depart="25.30" from="bottom0A0.250.00" to="A0right0" type="passenger"/>
    <trip id="54" depart="25.35" from="top0A0" to="A0left0" type="passenger"/>
    <trip id="55" depart="25.40" from="top0A0" to="A0top0" type="passenger"/>
    <trip id="56" depart="25.90" from="top0A0.250.00" to="A0left0" type="passenger"/>
    <trip id="57" depart="26.10" from="left0A0.250.00" to="A0left0" type="passenger"/>
    <trip id="58" depart="26.30" from="left0A0" to="A0right0" type="passenger"/>
    <trip id="59" depart="26.35" from="top0A0.250.00" to="A0bottom0" type="passenger"/>
    <trip id="60" depart="26.45" from="right0A0.250.00" to="A0bottom0" type="passenger"/>
    <trip id="61" depart="26.60" from="bottom0A0" to="right0A0.250.00" type="passenger"/>
    <trip id="62" depart="27.55" from="left0A0.250.00" to="A0right0" type="passenger"/>
    <trip id="63" depart="27.75" from="right0A0.250.00" to="A0bottom0" type="passenger"/>
    <trip id="64" depart="27.95" from="bottom0A0" to="bottom0A0.250.00" type="passenger"/>
    <trip id="65" depart="28.95" from="left0A0.250.00" to="top0A0.250.00" type="passenger"/>
    <trip id="66" depart="29.80" from="right0A0.250.00" to="top0A0.250.00" type="passenger"/>
    <trip id="67" depart="30.05" from="right0A0" to="A0top0" type="passenger"/>
    <trip id="68" depart="30.35" from="left0A0" to="A0right0" type="passenger"/>
    <trip id="69" depart="30.65" from="top0A0" to="A0bottom0" type="passenger"/>
    <trip id="70" depart="31.30" from="top0A0" to="left0A0.250.00" type="passenger"/>
    <trip id="71" depart="31.55" from="top0A0" to="bottom0A0.250.00" type="passenger"/>
    <trip id="72" depart="31.55" from="top0A0.250.00" to="right0A0.250.00" type="passenger"/>
    <trip id="73" depart="31.80" from="right0A0" to="A0right0" type="passenger"/>
    <trip id="74" depart="31.80" from="bottom0A0.250.00" to="right0A0.250.00" type="passenger"/>
    <trip id="75" depart="32.35" from="top0A0" to="right0A0.250.00" type="passenger"/>
    <trip id="76" depart="32.80" from="right0A0.250.00" to="bottom0A0.250.00" type="passenger"/>
    <trip id="77" depart="33.05" from="right0A0" to="top0A0.250.00" type="passenger"/>
    <trip id="78" depart="33.20" from="top0A0.250.00" to="right0A0.250.00" type="passenger"/>
    <trip id="79" depart="33.90" from="top0A0" to="A0top0" type="passenger"/>
    <trip id="80" depart="35.10" from="top0A0.250.00" to="top0A0.250.00" type="passenger"/>
    <trip id="81" depart="35.60" from="left0A0.250.00" to="A0top0" type="passenger"/>
    <trip id="82" depart="35.85" from="bottom0A0.250.00" to="A0right0" type="passenger"/>
    <trip id="83" depart="36.75" from="right0A0.250.00" to="A0bottom0" type="passenger"/>
    <trip id="84" depart="38.45" from="right0A0" to="bottom0A0.250.00" type="passenger"/>
    <trip id="85" depart="40.10" from="right0A0" to="right0A0.250.00" type="passenger"/>
    <trip id="86" depart="40.80" from="right0A0.250.00" to="top0A0.250.00" type="passenger"/>
    <trip id="87" depart="40.80" from="left0A0.250.00" to="A0top0" type="passenger"/>
    <trip id="88" depart="41.70" from="bottom0A0.250.00" to="A0top0" type="passenger"/>
    <trip id="89" depart="42.00" from="bottom0A0.250.00" to="A0left0" type="passenger"/>
    <trip id="90" depart="42.55" from="bottom0A0" to="bottom0A0.250.00" type="passenger"/>
    <trip id="91" depart="43.00" from="bottom0A0" to="A0top0" type="passenger"/>
    <trip id="92" depart="43.75" from="top0A0.250.00" to="A0right0" type="passenger"/>
    <trip id="93" depart="44.90" from="bottom0A0" to="A0right0" type="passenger"/>
    <trip id="94" depart="45.55" from="bottom0A0" to="left0A0.250.00" type="passenger"/>
    <trip id="95" depart="45.95" from="left0A0.250.00" to="A0left0" type="passenger"/>
    <trip id="96" depart="46.10" from="right0A0.250.00" to="right0A0.250.00" type="passenger"/>
    <trip id="97" depart="47.00" from="right0A0.250.00" to="bottom0A0.250.00" type="passenger"/>
    <trip id="98" depart="47.40" from="top0A0" to="A0top0" type="passenger"/>
    <trip id="99" depart="47.75" from="top0A0.250.00" to="top0A0.250.00" type="passenger"/>
    <trip id="100" depart="49.05" from="top0A0.250.00" to="A0bottom0" type="passenger"/>
    <trip id="101" depart="49.30" from="top0A0.250.00" to="left0A0.250.00" type="passenger"/>
    <trip id="102" depart="50.10" from="bottom0A0" to="bottom0A0.250.00" type="passenger"/>
    <trip id="103" depart="50.20" from="right0A0" to="right0A0.250.00" type="passenger"/>
    <trip id="104" depart="51.15" from="left0A0" to="bottom0A0.250.00" type="passenger"/>
    <trip id="105" depart="51.25" from="bottom0A0" to="top0A0.250.00" type="passenger"/>
    <trip id="106" depart="51.35" from="right0A0.250.00" to="top0A0.250.00" type="passenger"/>
    <trip id="107" depart="51.75" from="right0A0" to="A0right0" type="passenger"/>
    <trip id="108" depart="52.10" from="bottom0A0.250.00" to="top0A0.250.00" type="passenger"/>
    <trip id="109" depart="53.00" from="right0A0.250.00" to="A0right0" type="passenger"/>
    <trip id="110" depart="54.25" from="right0A0" to="top0A0.250.00" type="passenger"/>
    <trip id="111" depart="54.80" from="bottom0A0" to="A0bottom0" type="passenger"/>
    <trip id="112" depart="55.20" from="bottom0A0.250.00" to="A0bottom0" type="passenger"/>
    <trip id="113" depart="55.50" from="top0A0.250.00" to="left0A0.250.00" type="passenger"/>
    <trip id="114" depart="55.80" from="right0A0.250.00" to="top0A0.250.00" type="passenger"/>
    <trip id="115" depart="55.95" from="left0A0" to="left0A0.250.00" type="passenger"/>
    <trip id="116" depart="56.15" from="bottom0A0.250.00" to="top0A0.250.00" type="passenger"/>
    <trip id="117" depart="56.45" from="left0A0" to="A0top0" type="passenger"/>
    <trip id="118" depart="56.85" from="left0A0.250.00" to="right0A0.250.00" type="passenger"/>
    <trip id="119" depart="57.10" from="bottom0A0.250.00" to="left0A0.250.00" type="passenger"/>
    <trip id="120" depart="57.95" from="top0A0.250.00" to="A0left0" type="passenger"/>
    <trip id="121" depart="57.95" from="top0A0.250.00" to="right0A0.250.00" type="passenger"/>
    <trip id="122" depart="58.05" from="left0A0.250.00" to="bottom0A0.250.00" type="passenger"/>
    <trip id="123" depart="58.35" from="bottom0A0.250.00" to="A0left0" type="passenger"/>
    <trip id="124" depart="58.70" from="bottom0A0.250.00" to="A0left0" type="passenger"/>
    <trip id="125" depart="58.70" from="bottom0A0.250.00" to="A0left0" type="passenger"/>
    <trip id="126" depart="59.20" from="left0A0" to="top0A0.250.00" type="passenger"/>
    <trip id="127" depart="59.35" from="top0A0.250.00" to="bottom0A0.250.00" type="passenger"/>
    <trip id="128" depart="59.55" from="top0A0" to="A0right0" type="passenger"/>
    <trip id="129" depart="60.10" from="bottom0A0.250.00" to="A0bottom0" type="passenger"/>
    <trip id="130" depart="60.15" from="top0A0" to="left0A0.250.00" type="passenger"/>
    <trip id="131" depart="60.35" from="bottom0A0.250.00" to="A0top0" type="passenger"/>
    <trip id="132" depart="61.10" from="left0A0.250.00" to="A0right0" type="passenger"/>
    <trip id="133" depart="62.20" from="right0A0.250.00" to="bottom0A0.250.00" type="passenger"/>
    <trip id="134" depart="62.20" from="left0A0" to="A0left0" type="passenger"/>
    <trip id="135" depart="62.45" from="bottom0A0.250.00" to="right0A0.250.00" type="passenger"/>
    <trip id="136" depart="63.45" from="right0A0.250.00" to="bottom0A0.250.00" type="passenger"/>
    <trip id="137" depart="63.75" from="left0A0" to="right0A0.250.00" type="passenger"/>
    <trip id="138" depart="64.85" from="left0A0" to="left0A0.250.00" type="passenger"/>
    <trip id="139" depart="66.20" from="top0A0.250.00" to="A0right0" type="passenger"/>
    <trip id="140" depart="66.50" from="bottom0A0" to="right0A0.250.00" type="passenger"/>
    <trip id="141" depart="67.30" from="left0A0" to="A0left0" type="passenger"/>
    <trip id="142" depart="67.75" from="top0A0.250.00" to="A0right0" type="passenger"/>
    <trip id="143" depart="69.10" from="right0A0.250.00" to="top0A0.250.00" type="passenger"/>
    <trip id="144" depart="69.15" from="top0A0.250.00" to="A0right0" type="passenger"/>
    <trip id="145" depart="69.20" from="left0A0.250.00" to="top0A0.250.00" type="passenger"/>
    <trip id="146" depart="69.20" from="right0A0.250.00" to="A0right0" type="passenger"/>
    <trip id="147" depart="69.50" from="top0A0" to="A0right0" type="passenger"/>
    <trip id="148" depart="69.90" from="left0A0.250.00" to="right0A0.250.00" type="passenger"/>
    <trip id="149" depart="70.05" from="top0A0" to="A0left0" type="passenger"/>
    <trip id="150" depart="70.20" from="right0A0" to="left0A0.250.00" type="passenger"/>
    <trip id="151" depart="70.80" from="right0A0" to="top0A0.250.00" type="passenger"/>
    <trip id="152" depart="71.90" from="bottom0A0" to="A0bottom0" type="passenger"/>
    <trip id="153" depart="72.15" from="top0A0" to="top0A0.250.00" type="passenger"/>
    <trip id="154" depart="72.50" from="right0A0" to="A0top0" type="passenger"/>
    <trip id="155" depart="72.75" from="right0A0" to="top0A0.250.00" type="passenger"/>
    <trip id="156" depart="72.80" from="top0A0.250.00" to="bottom0A0.250.00" type="passenger"/>
    <trip id="157" depart="73.00" from="bottom0A0" to="right0A0.250.00" type="passenger"/>
    <trip id="158" depart="74.05" from="top0A0.250.00" to="left0A0.250.00" type="passenger"/>
    <trip id="159" depart="74.25" from="top0A0.250.00" to="top0A0.250.00" type="passenger"/>
    <trip id="160" depart="74.40" from="right0A0.250.00" to="A0left0" type="passenger"/>
    <trip id="161" depart="74.55" from="left0A0.250.00" to="bottom0A0.250.00" type="passenger"/>
    <trip id="162" depart="74.60" from="right0A0" to="A0left0" type="passenger"/>
    <trip id="163" depart="74.70" from="right0A0.250.00" to="A0bottom0" type="passenger"/>
    <trip id="164" depart="74.85" from="top0A0.250.00" to="left0A0.250.00" type="passenger"/>
    <trip id="165" depart="75.45" from="bottom0A0.250.00" to="A0left0" type="passenger"/>
    <trip id="166" depart="76.10" from="right0A0" to="A0top0" type="passenger"/>
    <trip id="167" depart="76.35" from="left0A0" to="bottom0A0.250.00" type="passenger"/>
    <trip id="168" depart="76.65" from="top0A0" to="bottom0A0.250.00" type="passenger"/>
    <trip id="169" depart="76.70" from="left0A0" to="A0bottom0" type="passenger"/>
    <trip id="170" depart="76.70" from="left0A0.250.00" to="A0bottom0" type="passenger"/>
    <trip id="171" depart="77.05" from="left0A0.250.00" to="left0A0.250.00" type="passenger"/>
    <trip id="172" depart="77.25" from="left0A0" to="A0top0" type="passenger"/>
    <trip id="173" depart="77.30" from="left0A0.250.00" to="A0bottom0" type="passenger"/>
    <trip id="174" depart="77.65" from="left0A0.250.00" to="A0top0" type="passenger"/>
    <trip id="175" depart="77.85" from="left0A0.250.00" to="A0right0" type="passenger"/>
    <trip id="176" depart="78.15" from="bottom0A0.250.00" to="top0A0.250.00" type="passenger"/>
    <trip id="177" depart="79.05" from="left0A0" to="A0left0" type="passenger"/>
    <trip id="178" depart="79.10" from="right0A0.250.00" to="right0A0.250.00" type="passenger"/>
    <trip id="179" depart="80.65" from="top0A0" to="A0left0" type="passenger"/>
    <trip id="180" depart="80.90" from="bottom0A0" to="bottom0A0.250.00" type="passenger"/>
    <trip id="181" depart="81.35" from="bottom0A0.250.00" to="A0top0" type="passenger"/>
    <trip id="182" depart="81.90" from="bottom0A0" to="A0right0" type="passenger"/>
    <trip id="183" depart="82.30" from="bottom0A0" to="A0right0" type="passenger"/>
    <trip id="184" depart="82.75" from="right0A0" to="top0A0.250.00" type="passenger"/>
    <trip id="185" depart="82.80" from="bottom0A0" to="A0bottom0" type="passenger"/>
    <trip id="186" depart="83.25" from="top0A0" to="A0top0" type="passenger"/>
    <trip id="187" depart="83.85" from="left0A0" to="right0A0.250.00" type="passenger"/>
    <trip id="188" depart="84.15" from="left0A0" to="A0left0" type="passenger"/>
    <trip id="189" depart="84.20" from="left0A0" to="top0A0.250.00" type="passenger"/>
    <trip id="190" depart="84.85" from="bottom0A0" to="left0A0.250.00" type="passenger"/>
    <trip id="191" depart="85.10" from="left0A0" to="bottom0A0.250.00" type="passenger"/>
    <trip id="192" depart="85.90" from="left0A0.250.00" to="A0right0" type="passenger"/>
    <trip id="193" depart="86.45" from="bottom0A0.250.00" to="A0bottom0" type="passenger"/>
    <trip id="194" depart="86.65" from="right0A0" to="top0A0.250.00" type="passenger"/>
    <trip id="195" depart="87.35" from="bottom0A0" to="A0top0" type="passenger"/>
    <trip id="196" depart="87.65" from="bottom0A0" to="A0left0" type="passenger"/>
    <trip id="197" depart="87.85" from="top0A0.250.00" to="A0top0" type="passenger"/>
    <trip id="198" depart="88.20" from="left0A0" to="top0A0.250.00" type="passenger"/>
    <trip id="199" depart="88.65" from="left0A0.250.00" to="A0left0" type="passenger"/>
    <trip id="200" depart="89.45" from="left0A0.250.00" to="bottom0A0.250.00" type="passenger"/>
    <trip id="201" depart="89.45" from="left0A0" to="A0bottom0" type="passenger"/>
    <trip id="202" depart="89.80" from="top0A0" to="top0A0.250.00" type="passenger"/>
    <trip id="203" depart="90.50" from="left0A0" to="top0A0.250.00" type="passenger"/>
    <trip id="204" depart="90.55" from="right0A0" to="A0left0" type="passenger"/>
    <trip id="205" depart="91.30" from="left0A0.250.00" to="A0top0" type="passenger"/>
    <trip id="206" depart="91.80" from="left0A0" to="right0A0.250.00" type="passenger"/>
    <trip id="207" depart="92.75" from="left0A0.250.00" to="A0top0" type="passenger"/>
    <trip id="208" depart="92.75" from="top0A0" to="left0A0.250.00" type="passenger"/>
    <trip id="209" depart="92.90" from="right0A0" to="left0A0.250.00" type="passenger"/>
    <trip id="210" depart="93.10" from="bottom0A0.250.00" to="bottom0A0.250.00" type="passenger"/>
    <trip id="211" depart="94.05" from="left0A0.250.00" to="A0top0" type="passenger"/>
    <trip id="212" depart="94.20" from="bottom0A0" to="A0top0" type="passenger"/>
    <trip id="213" depart="94.35" from="top0A0" to="top0A0.250.00" type="passenger"/>
    <trip id="214" depart="94.45" from="bottom0A0" to="left0A0.250.00" type="passenger"/>
    <trip id="215" depart="94.55" from="right0A0" to="bottom0A0.250.00" type="passenger"/>
    <trip id="216" depart="94.80" from="bottom0A0" to="A0bottom0" type="passenger"/>
    <trip id="217" depart="95.05" from="left0A0.250.00" to="bottom0A0.250.00" type="passenger"/>
    <trip id="218" depart="95.45" from="bottom0A0" to="right0A0.250.00" type="passenger"/>
    <trip id="219" depart="95.50" from="bottom0A0.250.00" to="top0A0.250.00" type="passenger"/>
    <trip id="220" depart="96.15" from="top0A0" to="bottom0A0.250.00" type="passenger"/>
    <trip id="221" depart="96.35" from="bottom0A0" to="bottom0A0.250.00" type="passenger"/>
    <trip id="222" depart="96.50" from="top0A0" to="A0right0" type="passenger"/>
    <trip id="223" depart="96.60" from="top0A0.250.00" to="A0right0" type="passenger"/>
    <trip id="224" depart="97.85" from="right0A0.250.00" to="A0bottom0" type="passenger"/>
    <trip id="225" depart="98.95" from="top0A0" to="right0A0.250.00" type="passenger"/>
    <trip id="226" depart="99.10" from="right0A0.250.00" to="A0left0" type="passenger"/>
    <trip id="227" depart="99.25" from="top0A0.250.00" to="A0right0" type="passenger"/>
    <trip id="228" depart="99.95" from="bottom0A0.250.00" to="A0right0" type="passenger"/>
    <trip id="229" depart="100.80" from="left0A0.250.00" to="bottom0A0.250.00" type="passenger"/>
    <trip id="230" depart="101.30" from="left0A0.250.00" to="A0left0" type="passenger"/>
    <trip id="231" depart="102.05" from="right0A0.250.00" to="right0A0.250.00" type="passenger"/>
    <trip id="232" depart="102.05" from="top0A0" to="A0left0" type="passenger"/>
    <trip id="233" depart="102.15" from="bottom0A0" to="A0left0" type="passenger"/>
    <trip id="234" depart="102.60" from="bottom0A0.250.00" to="A0top0" type="passenger"/>
    <trip id="235" depart="103.00" from="left0A0.250.00" to="A0right0" type="passenger"/>
    <trip id="236" depart="103.50" from="bottom0A0" to="A0left0" type="passenger"/>
    <trip id="237" depart="103.60" from="right0A0" to="A0left0" type="passenger"/>
    <trip id="238" depart="103.70" from="top0A0.250.00" to="right0A0.250.00" type="passenger"/>
    <trip id="239" depart="105.00" from="bottom0A0.250.00" to="A0bottom0" type="passenger"/>
    <trip id="240" depart="106.30" from="bottom0A0.250.00" to="A0bottom0" type="passenger"/>
    <trip id="241" depart="106.80" from="left0A0.250.00" to="A0right0" type="passenger"/>
    <trip id="242" depart="106.90" from="top0A0.250.00" to="bottom0A0.250.00" type="passenger"/>
    <trip id="243" depart="106.95" from="right0A0" to="right0A0.250.00" type="passenger"/>
    <trip id="244" depart="107.25" from="right0A0.250.00" to="right0A0.250.00" type="passenger"/>
    <trip id="245" depart="107.35" from="left0A0" to="top0A0.250.00" type="passenger"/>
    <trip id="246" depart="108.15" from="top0A0.250.00" to="A0top0" type="passenger"/>
    <trip id="247" depart="109.95" from="bottom0A0.250.00" to="A0bottom0" type="passenger"/>
    <trip id="248" depart="109.95" from="top0A0.250.00" to="A0top0" type="passenger"/>
    <trip id="249" depart="110.55" from="bottom0A0" to="right0A0.250.00" type="passenger"/>
    <trip id="250" depart="112.20" from="left0A0.250.00" to="left0A0.250.00" type="passenger"/>
    <trip id="251" depart="113.10" from="bottom0A0.250.00" to="A0left0" type="passenger"/>
    <trip id="252" depart="113.50" from="right0A0" to="A0top0" type="passenger"/>
    <trip id="253" depart="113.80" from="top0A0.250.00" to="top0A0.250.00" type="passenger"/>
    <trip id="254" depart="114.70" from="left0A0.250.00" to="left0A0.250.00" type="passenger"/>
    <trip id="255" depart="115.35" from="bottom0A0" to="left0A0.250.00" type="passenger"/>
    <trip id="256" depart="115.80" from="right0A0" to="A0bottom0" type="passenger"/>
    <trip id="257" depart="116.30" from="top0A0" to="left0A0.250.00" type="passenger"/>
    <trip id="258" depart="116.50" from="bottom0A0.250.00" to="A0left0" type="passenger"/>
    <trip id="259" depart="116.55" from="bottom0A0.250.00" to="A0bottom0" type="passenger"/>
    <trip id="260" depart="117.40" from="right0A0" to="bottom0A0.250.00" type="passenger"/>
    <trip id="261" depart="117.65" from="bottom0A0.250.00" to="left0A0.250.00" type="passenger"/>
    <trip id="262" depart="117.65" from="top0A0" to="A0bottom0" type="passenger"/>
    <trip id="263" depart="118.15" from="top0A0.250.00" to="left0A0.250.00" type="passenger"/>
    <trip id="264" depart="118.85" from="bottom0A0.250.00" to="A0left0" type="passenger"/>
    <trip id="265" depart="119.60" from="top0A0" to="bottom0A0.250.00" type="passenger"/>
    <trip id="266" depart="119.70" from="right0A0.250.00" to="A0right0" type="passenger"/>
    <trip id="267" depart="119.90" from="left0A0.250.00" to="A0bottom0" type="passenger"/>
    <trip id="268" depart="120.05" from="right0A0.250.00" to="bottom0A0.250.00" type="passenger"/>
    <trip id="269" depart="120.70" from="bottom0A0.250.00" to="A0top0" type="passenger"/>
    <trip id="270" depart="120.80" from="bottom0A0.250.00" to="A0right0" type="passenger"/>
    <trip id="271" depart="121.40" from="bottom0A0" to="A0right0" type="passenger"/>
    <trip id="272" depart="121.55" from="top0A0.250.00" to="A0right0" type="passenger"/>
    <trip id="273" depart="121.60" from="left0A0" to="right0A0.250.00" type="passenger"/>
    <trip id="274" depart="121.70" from="bottom0A0" to="left0A0.250.00" type="passenger"/>
    <trip id="275" depart="122.05" from="top0A0.250.00" to="A0top0" type="passenger"/>
    <trip id="276" depart="122.45" from="top0A0" to="left0A0.250.00" type="passenger"/>
    <trip id="277" depart="123.30" from="top0A0.250.00" to="A0top0" type="passenger"/>
    <trip id="278" depart="123.40" from="top0A0.250.00" to="bottom0A0.250.00" type="passenger"/>
    <trip id="279" depart="123.65" from="right0A0.250.00" to="right0A0.250.00" type="passenger"/>
    <trip id="280" depart="124.25" from="left0A0" to="right0A0.250.00" type="passenger"/>
    <trip id="281" depart="124.85" from="top0A0.250.00" to="A0left0" type="passenger"/>
    <trip id="282" depart="124.95" from="right0A0" to="bottom0A0.250.00" type="passenger"/>
    <trip id="283" depart="126.00" from="left0A0.250.00" to="right0A0.250.00" type="passenger"/>
    <trip id="284" depart="128.60" from="left0A0" to="bottom0A0.250.00" type="passenger"/>
    <trip id="285" depart="129.05" from="right0A0" to="left0A0.250.00" type="passenger"/>
    <trip id="286" depart="129.70" from="bottom0A0" to="right0A0.250.00" type="passenger"/>
    <trip id="287" depart="129.95" from="bottom0A0" to="bottom0A0.250.00" type="passenger"/>
    <trip id="288" depart="131.05" from="bottom0A0.250.00" to="A0right0" type="passenger"/>
    <trip id="289" depart="131.60" from="left0A0.250.00" to="top0A0.250.00" type="passenger"/>
    <trip id="290" depart="132.25" from="left0A0" to="top0A0.250.00" type="passenger"/>
    <trip id="291" depart="132.45" from="right0A0.250.00" to="A0bottom0" type="passenger"/>
    <trip id="292" depart="133.00" from="left0A0.250.00" to="A0left0" type="passenger"/>
    <trip id="293" depart="133.25" from="left0A0.250.00" to="A0bottom0" type="passenger"/>
    <trip id="294" depart="133.45" from="top0A0.250.00" to="top0A0.250.00" type="passenger"/>
    <trip id="295" depart="135.00" from="right0A0.250.00" to="A0top0" type="passenger"/>
    <trip id="296" depart="135.10" from="left0A0.250.00" to="A0right0" type="passenger"/>
    <trip id="297" depart="135.20" from="left0A0" to="top0A0.250.00" type="passenger"/>
    <trip id="298" depart="135.60" from="top0A0" to="A0bottom0" type="passenger"/>
    <trip id="299" depart="137.65" from="top0A0" to="A0right0" type="passenger"/>
    <trip id="300" depart="137.80" from="top0A0.250.00" to="A0left0" type="passenger"/>
    <trip id="301" depart="138.10" from="right0A0" to="A0left0" type="passenger"/>
    <trip id="302" depart="138.40" from="bottom0A0.250.00" to="A0bottom0" type="passenger"/>
    <trip id="303" depart="138.80" from="right0A0" to="right0A0.250.00" type="passenger"/>
    <trip id="304" depart="139.40" from="top0A0.250.00" to="left0A0.250.00" type="passenger"/>
    <trip id="305" depart="139.55" from="right0A0" to="bottom0A0.250.00" type="passenger"/>
    <trip id="306" depart="140.40" from="right0A0.250.00" to="right0A0.250.00" type="passenger"/>
    <trip id="307" depart="140.40" from="top0A0" to="A0bottom0" type="passenger"/>
    <trip id="308" depart="140.95" from="right0A0" to="bottom0A0.250.00" type="passenger"/>
    <trip id="309" depart="141.10" from="bottom0A0.250.00" to="A0left0" type="passenger"/>
    <trip id="310" depart="141.55" from="right0A0.250.00" to="A0top0" type="passenger"/>
    <trip id="311" depart="141.80" from="right0A0" to="A0top0" type="passenger"/>
    <trip id="312" depart="141.90" from="bottom0A0.250.00" to="left0A0.250.00" type="passenger"/>
    <trip id="313" depart="142.70" from="top0A0.250.00" to="bottom0A0.250.00" type="passenger"/>
    <trip id="314" depart="142.80" from="bottom0A0" to="A0top0" type="passenger"/>
    <trip id="315" depart="143.15" from="bottom0A0.250.00" to="A0left0" type="passenger"/>
    <trip id="316" depart="143.20" from="right0A0" to="A0bottom0" type="passenger"/>
    <trip id="317" depart="143.50" from="top0A0" to="A0bottom0" type="passenger"/>
    <trip id="318" depart="145.10" from="top0A0" to="bottom0A0.250.00" type="passenger"/>
    <trip id="319" depart="145.35" from="left0A0" to="right0A0.250.00" type="passenger"/>
    <trip id="320" depart="145.55" from="top0A0" to="A0top0" type="passenger"/>
    <trip id="321" depart="145.60" from="left0A0" to="A0top0" type="passenger"/>
    <trip id="322" depart="145.70" from="left0A0.250.00" to="A0bottom0" type="passenger"/>
    <trip id="323" depart="145.90" from="right0A0.250.00" to="A0left0" type="passenger"/>
    <trip id="324" depart="146.30" from="top0A0.250.00" to="A0bottom0" type="passenger"/>
    <trip id="325" depart="146.40" from="left0A0.250.00" to="A0bottom0" type="passenger"/>