<?xml version="1.0" encoding="UTF-8"?>

<!-- generated on 2023-04-26 16:57:08.470040 by randomTrips.py UNKNOWN
<configuration>
    <begin value="0"/>
    <end value="900"/>
    <insertion-rate value="8000.0"/>
    <net-file value="/home/franky3er/Documents/code/HieraGLight/scenarios/grid/1x1-500m/train/84-scenario/network.net.xml"/>
    <random value="True"/>
    <random-depart value="True"/>
    <route-file value="/home/franky3er/Documents/code/HieraGLight/scenarios/grid/1x1-500m/train/84-scenario/routes.rou.xml"/>
    <seed value="84"/>
    <output-trip-file value="/home/franky3er/Documents/code/HieraGLight/scenarios/grid/1x1-500m/train/84-scenario/trips.trips.xml"/>
    <vehicle-class value="passenger"/>
</configuration>
-->

<!-- generated on 2023-04-26 16:57:08 by Eclipse SUMO duarouter Version 1.16.0
<configuration xmlns:xsi="http://www.w3.org/2001/XMLSchema-instance" xsi:noNamespaceSchemaLocation="http://sumo.dlr.de/xsd/duarouterConfiguration.xsd">

    <input>
        <net-file value="/home/franky3er/Documents/code/HieraGLight/scenarios/grid/1x1-500m/train/84-scenario/network.net.xml"/>
        <route-files value="/home/franky3er/Documents/code/HieraGLight/scenarios/grid/1x1-500m/train/84-scenario/trips.trips.xml"/>
    </input>

    <output>
        <output-file value="/home/franky3er/Documents/code/HieraGLight/scenarios/grid/1x1-500m/train/84-scenario/routes.rou.xml"/>
        <alternatives-output value="NUL"/>
    </output>

    <time>
        <begin value="0"/>
        <end value="900"/>
    </time>

    <report>
        <no-warnings value="true"/>
        <ignore-errors value="true"/>
        <no-step-log value="true"/>
    </report>

</configuration>
-->

<routes xmlns:xsi="http://www.w3.org/2001/XMLSchema-instance" xsi:noNamespaceSchemaLocation="http://sumo.dlr.de/xsd/routes_file.xsd">
    <vType id="passenger" vClass="passenger"/>
    <vehicle id="0" type="passenger" depart="0.05">
        <route edges="right0A0.250.00"/>
    </vehicle>
    <vehicle id="2" type="passenger" depart="1.25">
        <route edges="top0A0 top0A0.250.00"/>
    </vehicle>
    <vehicle id="3" type="passenger" depart="2.45">
        <route edges="right0A0 right0A0.250.00 A0top0"/>
    </vehicle>
    <vehicle id="4" type="passenger" depart="2.75">
        <route edges="top0A0.250.00 A0right0"/>
    </vehicle>
    <vehicle id="5" type="passenger" depart="3.95">
        <route edges="right0A0.250.00 A0top0"/>
    </vehicle>
    <vehicle id="10" type="passenger" depart="5.85">
        <route edges="right0A0.250.00"/>
    </vehicle>
    <vehicle id="12" type="passenger" depart="6.00">
        <route edges="right0A0.250.00 A0top0"/>
    </vehicle>
    <vehicle id="13" type="passenger" depart="6.05">
        <route edges="right0A0.250.00 A0left0"/>
    </vehicle>
    <vehicle id="18" type="passenger" depart="9.15">
        <route edges="right0A0.250.00 A0left0"/>
    </vehicle>
    <vehicle id="19" type="passenger" depart="9.50">
        <route edges="top0A0 top0A0.250.00"/>
    </vehicle>
    <vehicle id="21" type="passenger" depart="9.75">
        <route edges="bottom0A0.250.00 A0top0"/>
    </vehicle>
    <vehicle id="22" type="passenger" depart="10.30">
        <route edges="top0A0 top0A0.250.00"/>
    </vehicle>
    <vehicle id="28" type="passenger" depart="11.65">
        <route edges="left0A0.250.00 A0bottom0"/>
    </vehicle>
    <vehicle id="29" type="passenger" depart="12.65">
        <route edges="left0A0.250.00 A0bottom0"/>
    </vehicle>
    <vehicle id="30" type="passenger" depart="12.80">
        <route edges="left0A0.250.00 A0right0"/>
    </vehicle>
    <vehicle id="32" type="passenger" depart="13.85">
        <route edges="right0A0.250.00 A0bottom0"/>
    </vehicle>
    <vehicle id="33" type="passenger" depart="13.85">
        <route edges="top0A0 top0A0.250.00 A0left0"/>
    </vehicle>
    <vehicle id="36" type="passenger" depart="16.60">
        <route edges="right0A0 right0A0.250.00 A0top0"/>
    </vehicle>
    <vehicle id="37" type="passenger" depart="16.80">
        <route edges="top0A0 top0A0.250.00"/>
    </vehicle>
    <vehicle id="39" type="passenger" depart="18.90">
        <route edges="right0A0 right0A0.250.00 A0left0"/>
    </vehicle>
    <vehicle id="42" type="passenger" depart="19.45">
        <route edges="right0A0.250.00 A0left0"/>
    </vehicle>
    <vehicle id="44" type="passenger" depart="19.90">
        <route edges="bottom0A0.250.00 A0right0"/>
    </vehicle>
    <vehicle id="45" type="passenger" depart="20.25">
        <route edges="right0A0.250.00 A0left0"/>
    </vehicle>
    <vehicle id="48" type="passenger" depart="22.10">
        <route edges="left0A0.250.00 A0right0"/>
    </vehicle>
    <vehicle id="50" type="passenger" depart="22.45">
        <route edges="right0A0 right0A0.250.00 A0left0"/>
    </vehicle>
    <vehicle id="52" type="passenger" depart="23.25">
        <route edges="right0A0.250.00 A0top0"/>
    </vehicle>
    <vehicle id="53" type="passenger" depart="23.35">
        <route edges="top0A0.250.00 A0right0"/>
    </vehicle>
    <vehicle id="54" type="passenger" depart="23.40">
        <route edges="right0A0 right0A0.250.00 A0bottom0"/>
    </vehicle>
    <vehicle id="55" type="passenger" depart="24.05">
        <route edges="bottom0A0 bottom0A0.250.00 A0top0"/>
    </vehicle>
    <vehicle id="56" type="passenger" depart="25.00">
        <route edges="left0A0 left0A0.250.00 A0top0"/>
    </vehicle>
    <vehicle id="59" type="passenger" depart="25.90">
        <route edges="top0A0.250.00 A0left0"/>
    </vehicle>
    <vehicle id="60" type="passenger" depart="26.55">
        <route edges="bottom0A0 bottom0A0.250.00 A0right0"/>
    </vehicle>
    <vehicle id="62" type="passenger" depart="27.95">
        <route edges="bottom0A0 bottom0A0.250.00"/>
    </vehicle>
    <vehicle id="71" type="passenger" depart="32.50">
        <route edges="right0A0 right0A0.250.00 A0top0"/>
    </vehicle>
    <vehicle id="72" type="passenger" depart="34.00">
        <route edges="left0A0.250.00 A0bottom0"/>
    </vehicle>
    <vehicle id="74" type="passenger" depart="35.35">
        <route edges="bottom0A0.250.00 A0top0"/>
    </vehicle>
    <vehicle id="76" type="passenger" depart="36.95">
        <route edges="top0A0.250.00 A0left0"/>
    </vehicle>
    <vehicle id="77" type="passenger" depart="37.60">
        <route edges="right0A0 right0A0.250.00 A0top0"/>
    </vehicle>
    <vehicle id="79" type="passenger" depart="38.15">
        <route edges="right0A0 right0A0.250.00 A0left0"/>
    </vehicle>
    <vehicle id="82" type="passenger" depart="39.75">
        <route edges="bottom0A0.250.00 A0top0"/>
    </vehicle>
    <vehicle id="83" type="passenger" depart="40.10">
        <route edges="bottom0A0.250.00 A0top0"/>
    </vehicle>
    <vehicle id="84" type="passenger" depart="41.50">
        <route edges="right0A0 right0A0.250.00 A0left0"/>
    </vehicle>
    <vehicle id="85" type="passenger" depart="42.25">
        <route edges="bottom0A0.250.00 A0left0"/>
    </vehicle>
    <vehicle id="91" type="passenger" depart="45.65">
        <route edges="bottom0A0.250.00 A0left0"/>
    </vehicle>
    <vehicle id="92" type="passenger" depart="45.75">
        <route edges="right0A0 right0A0.250.00 A0bottom0"/>
    </vehicle>
    <vehicle id="94" type="passenger" depart="46.75">
        <route edges="top0A0.250.00"/>
    </vehicle>
    <vehicle id="95" type="passenger" depart="46.80">
        <route edges="bottom0A0.250.00 A0right0"/>
    </vehicle>
    <vehicle id="97" type="passenger" depart="47.25">
        <route edges="bottom0A0.250.00 A0right0"/>
    </vehicle>
    <vehicle id="98" type="passenger" depart="47.25">
        <route edges="top0A0 top0A0.250.00 A0bottom0"/>
    </vehicle>
    <vehicle id="100" type="passenger" depart="47.80">
        <route edges="left0A0 left0A0.250.00"/>
    </vehicle>
    <vehicle id="103" type="passenger" depart="50.05">
        <route edges="bottom0A0 bottom0A0.250.00 A0top0"/>
    </vehicle>
    <vehicle id="104" type="passenger" depart="50.15">
        <route edges="bottom0A0 bottom0A0.250.00 A0right0"/>
    </vehicle>
    <vehicle id="105" type="passenger" depart="50.35">
        <route edges="left0A0.250.00 A0top0"/>
    </vehicle>
    <vehicle id="108" type="passenger" depart="51.20">
        <route edges="top0A0 top0A0.250.00 A0bottom0"/>
    </vehicle>
    <vehicle id="113" type="passenger" depart="53.25">
        <route edges="right0A0.250.00 A0left0"/>
    </vehicle>
    <vehicle id="114" type="passenger" depart="54.55">
        <route edges="right0A0 right0A0.250.00 A0bottom0"/>
    </vehicle>
    <vehicle id="115" type="passenger" depart="54.95">
        <route edges="right0A0 right0A0.250.00"/>
    </vehicle>
    <vehicle id="119" type="passenger" depart="57.15">
        <route edges="right0A0.250.00 A0left0"/>
    </vehicle>
    <vehicle id="120" type="passenger" depart="58.30">
        <route edges="bottom0A0.250.00 A0top0"/>
    </vehicle>
    <vehicle id="122" type="passenger" depart="59.20">
        <route edges="left0A0 left0A0.250.00 A0bottom0"/>
    </vehicle>
    <vehicle id="124" type="passenger" depart="59.40">
        <route edges="bottom0A0 bottom0A0.250.00"/>
    </vehicle>
    <vehicle id="125" type="passenger" depart="59.55">
        <route edges="left0A0 left0A0.250.00 A0bottom0"/>
    </vehicle>
    <vehicle id="130" type="passenger" depart="61.20">
        <route edges="left0A0 left0A0.250.00 A0bottom0"/>
    </vehicle>
    <vehicle id="131" type="passenger" depart="61.20">
        <route edges="right0A0 right0A0.250.00 A0bottom0"/>
    </vehicle>
    <vehicle id="136" type="passenger" depart="64.90">
        <route edges="left0A0.250.00 A0bottom0"/>
    </vehicle>
    <vehicle id="137" type="passenger" depart="65.20">
        <route edges="left0A0 left0A0.250.00 A0right0"/>
    </vehicle>
    <vehicle id="140" type="passenger" depart="66.10">
        <route edges="right0A0 right0A0.250.00 A0top0"/>
    </vehicle>
    <vehicle id="142" type="passenger" depart="66.75">
        <route edges="top0A0 top0A0.250.00 A0bottom0"/>
    </vehicle>
    <vehicle id="144" type="passenger" depart="67.35">
        <route edges="bottom0A0 bottom0A0.250.00 A0left0"/>
    </vehicle>
    <vehicle id="146" type="passenger" depart="69.80">
        <route edges="bottom0A0 bottom0A0.250.00 A0top0"/>
    </vehicle>
    <vehicle id="149" type="passenger" depart="70.15">
        <route edges="top0A0.250.00 A0bottom0"/>
    </vehicle>
    <vehicle id="152" type="passenger" depart="73.20">
        <route edges="top0A0.250.00 A0bottom0"/>
    </vehicle>
    <vehicle id="153" type="passenger" depart="73.30">
        <route edges="left0A0 left0A0.250.00 A0top0"/>
    </vehicle>
    <vehicle id="160" type="passenger" depart="76.75">
        <route edges="bottom0A0 bottom0A0.250.00 A0left0"/>
    </vehicle>
    <vehicle id="161" type="passenger" depart="77.15">
        <route edges="left0A0.250.00"/>
    </vehicle>
    <vehicle id="169" type="passenger" depart="79.20">
        <route edges="right0A0 right0A0.250.00 A0bottom0"/>
    </vehicle>
    <vehicle id="172" type="passenger" depart="80.95">
        <route edges="right0A0 right0A0.250.00 A0bottom0"/>
    </vehicle>
    <vehicle id="173" type="passenger" depart="81.05">
        <route edges="right0A0 right0A0.250.00 A0bottom0"/>
    </vehicle>
    <vehicle id="176" type="passenger" depart="81.70">
        <route edges="top0A0.250.00 A0right0"/>
    </vehicle>
    <vehicle id="177" type="passenger" depart="82.05">
        <route edges="bottom0A0.250.00 A0left0"/>
    </vehicle>
    <vehicle id="182" type="passenger" depart="83.70">
        <route edges="left0A0 left0A0.250.00 A0bottom0"/>
    </vehicle>
    <vehicle id="184" type="passenger" depart="83.95">
        <route edges="top0A0 top0A0.250.00"/>
    </vehicle>
    <vehicle id="185" type="passenger" depart="84.10">
        <route edges="top0A0 top0A0.250.00 A0left0"/>
    </vehicle>
    <vehicle id="186" type="passenger" depart="84.50">
        <route edges="top0A0.250.00 A0left0"/>
    </vehicle>
    <vehicle id="187" type="passenger" depart="85.10">
        <route edges="left0A0.250.00 A0top0"/>
    </vehicle>
    <vehicle id="188" type="passenger" depart="85.15">
        <route edges="left0A0 left0A0.250.00 A0bottom0"/>
    </vehicle>
    <vehicle id="189" type="passenger" depart="86.15">
        <route edges="bottom0A0 bottom0A0.250.00 A0right0"/>
    </vehicle>
    <vehicle id="191" type="passenger" depart="87.25">
        <route edges="bottom0A0.250.00 A0right0"/>
    </vehicle>
    <vehicle id="192" type="passenger" depart="87.30">
        <route edges="left0A0 left0A0.250.00 A0top0"/>
    </vehicle>
    <vehicle id="193" type="passenger" depart="87.35">
        <route edges="top0A0.250.00 A0right0"/>
    </vehicle>
    <vehicle id="195" type="passenger" depart="88.00">
        <route edges="top0A0.250.00 A0bottom0"/>
    </vehicle>
    <vehicle id="196" type="passenger" depart="88.90">
        <route edges="top0A0.250.00"/>
    </vehicle>
    <vehicle id="198" type="passenger" depart="89.70">
        <route edges="left0A0.250.00"/>
    </vehicle>
    <vehicle id="199" type="passenger" depart="89.75">
        <route edges="left0A0.250.00 A0right0"/>
    </vehicle>
    <vehicle id="202" type="passenger" depart="90.80">
        <route edges="left0A0.250.00 A0bottom0"/>
    </vehicle>
    <vehicle id="203" type="passenger" depart="92.10">
        <route edges="right0A0 right0A0.250.00"/>
    </vehicle>
    <vehicle id="206" type="passenger" depart="93.30">
        <route edges="left0A0 left0A0.250.00"/>
    </vehicle>
    <vehicle id="210" type="passenger" depart="94.05">
        <route edges="left0A0.250.00 A0top0"/>
    </vehicle>
    <vehicle id="211" type="passenger" depart="96.20">
        <route edges="left0A0.250.00"/>
    </vehicle>
    <vehicle id="214" type="passenger" depart="97.85">
        <route edges="top0A0.250.00 A0left0"/>
    </vehicle>
    <vehicle id="215" type="passenger" depart="97.95">
        <route edges="left0A0.250.00"/>
    </vehicle>
    <vehicle id="217" type="passenger" depart="98.35">
        <route edges="right0A0.250.00 A0left0"/>
    </vehicle>
    <vehicle id="223" type="passenger" depart="102.75">
        <route edges="right0A0 right0A0.250.00"/>
    </vehicle>
    <vehicle id="231" type="passenger" depart="108.65">
        <route edges="right0A0.250.00 A0left0"/>
    </vehicle>
    <vehicle id="232" type="passenger" depart="109.35">
        <route edges="left0A0.250.00 A0right0"/>
    </vehicle>
    <vehicle id="233" type="passenger" depart="109.70">
        <route edges="bottom0A0 bottom0A0.250.00 A0top0"/>
    </vehicle>
    <vehicle id="235" type="passenger" depart="109.80">
        <route edges="bottom0A0 bottom0A0.250.00 A0right0"/>
    </vehicle>
    <vehicle id="237" type="passenger" depart="110.00">
        <route edges="bottom0A0.250.00 A0left0"/>
    </vehicle>
    <vehicle id="238" type="passenger" depart="110.15">
        <route edges="top0A0 top0A0.250.00 A0left0"/>
    </vehicle>
    <vehicle id="241" type="passenger" depart="111.45">
        <route edges="right0A0 right0A0.250.00 A0bottom0"/>
    </vehicle>
    <vehicle id="244" type="passenger" depart="112.75">
        <route edges="bottom0A0.250.00 A0left0"/>
    </vehicle>
    <vehicle id="248" type="passenger" depart="114.15">
        <route edges="right0A0 right0A0.250.00 A0left0"/>
    </vehicle>
    <vehicle id="249" type="passenger" depart="114.20">
        <route edges="top0A0.250.00 A0right0"/>
    </vehicle>
    <vehicle id="250" type="passenger" depart="114.95">
        <route edges="bottom0A0.250.00 A0left0"/>
    </vehicle>
    <vehicle id="255" type="passenger" depart="117.90">
        <route edges="left0A0 left0A0.250.00"/>
    </vehicle>
    <vehicle id="257" type="passenger" depart="118.85">
        <route edges="bottom0A0.250.00"/>
    </vehicle>
    <vehicle id="258" type="passenger" depart="119.60">
        <route edges="bottom0A0 bottom0A0.250.00 A0right0"/>
    </vehicle>
    <vehicle id="259" type="passenger" depart="119.65">
        <route edges="bottom0A0.250.00 A0left0"/>
    </vehicle>
    <vehicle id="260" type="passenger" depart="120.00">
        <route edges="right0A0 right0A0.250.00"/>
    </vehicle>
    <vehicle id="261" type="passenger" depart="120.30">
        <route edges="top0A0 top0A0.250.00 A0right0"/>
    </vehicle>
    <vehicle id="263" type="passenger" depart="122.05">
        <route edges="bottom0A0 bottom0A0.250.00"/>
    </vehicle>
    <vehicle id="265" type="passenger" depart="123.80">
        <route edges="right0A0 right0A0.250.00 A0top0"/>
    </vehicle>
    <vehicle id="266" type="passenger" depart="123.95">
        <route edges="left0A0 left0A0.250.00"/>
    </vehicle>
    <vehicle id="269" type="passenger" depart="125.65">
        <route edges="right0A0 right0A0.250.00 A0left0"/>
    </vehicle>
    <vehicle id="270" type="passenger" depart="125.65">
        <route edges="right0A0 right0A0.250.00 A0bottom0"/>
    </vehicle>
    <vehicle id="273" type="passenger" depart="125.85">
        <route edges="left0A0 left0A0.250.00 A0top0"/>
    </vehicle>
    <vehicle id="275" type="passenger" depart="126.35">
        <route edges="bottom0A0.250.00"/>
    </vehicle>
    <vehicle id="276" type="passenger" depart="127.50">
        <route edges="left0A0 left0A0.250.00 A0top0"/>
    </vehicle>
    <vehicle id="277" type="passenger" depart="128.50">
        <route edges="left0A0.250.00 A0top0"/>
    </vehicle>
    <vehicle id="282" type="passenger" depart="130.65">
        <route edges="left0A0.250.00 A0bottom0"/>
    </vehicle>
    <vehicle id="284" type="passenger" depart="132.00">
        <route edges="top0A0 top0A0.250.00"/>
    </vehicle>
    <vehicle id="286" type="passenger" depart="132.65">
        <route edges="top0A0 top0A0.250.00"/>
    </vehicle>
    <vehicle id="291" type="passenger" depart="133.60">
        <route edges="bottom0A0.250.00"/>
    </vehicle>
    <vehicle id="292" type="passenger" depart="133.75">
        <route edges="right0A0 right0A0.250.00 A0top0"/>
    </vehicle>
    <vehicle id="297" type="passenger" depart="135.85">
        <route edges="left0A0 left0A0.250.00"/>
    </vehicle>
    <vehicle id="298" type="passenger" depart="136.75">
        <route edges="left0A0.250.00 A0bottom0"/>
    </vehicle>
    <vehicle id="300" type="passenger" depart="137.20">
        <route edges="left0A0.250.00 A0bottom0"/>
    </vehicle>
    <vehicle id="304" type="passenger" depart="138.40">
        <route edges="top0A0.250.00 A0left0"/>
    </vehicle>
    <vehicle id="306" type="passenger" depart="138.80">
        <route edges="left0A0.250.00"/>
    </vehicle>
    <vehicle id="307" type="passenger" depart="138.85">
        <route edges="bottom0A0 bottom0A0.250.00"/>
    </vehicle>
    <vehicle id="308" type="passenger" depart="138.95">
        <route edges="top0A0.250.00 A0bottom0"/>
    </vehicle>
    <vehicle id="315" type="passenger" depart="142.45">
        <route edges="right0A0 right0A0.250.00 A0top0"/>
    </vehicle>
    <vehicle id="316" type="passenger" depart="142.45">
        <route edges="left0A0 left0A0.250.00 A0right0"/>
    </vehicle>
    <vehicle id="318" type="passenger" depart="143.90">
        <route edges="right0A0 right0A0.250.00 A0top0"/>
    </vehicle>
    <vehicle id="322" type="passenger" depart="145.45">
        <route edges="right0A0.250.00 A0top0"/>
    </vehicle>
    <vehicle id="323" type="passenger" depart="146.30">
        <route edges="top0A0.250.00 A0left0"/>
    </vehicle>
    <vehicle id="324" type="passenger" depart="146.70">
        <route edges="bottom0A0.250.00 A0left0"/>
    </vehicle>
    <vehicle id="326" type="passenger" depart="147.35">
        <route edges="bottom0A0.250.00 A0left0"/>
    </vehicle>
    <vehicle id="329" type="passenger" depart="149.70">
        <route edges="bottom0A0.250.00"/>
    </vehicle>
    <vehicle id="330" type="passenger" depart="149.75">
        <route edges="bottom0A0.250.00 A0left0"/>
    </vehicle>
    <vehicle id="331" type="passenger" depart="150.45">
        <route edges="top0A0 top0A0.250.00"/>
    </vehicle>
    <vehicle id="333" type="passenger" depart="150.95">
        <route edges="bottom0A0 bottom0A0.250.00 A0top0"/>
    </vehicle>
    <vehicle id="334" type="passenger" depart="151.05">
        <route edges="bottom0A0 bottom0A0.250.00 A0left0"/>
    </vehicle>
    <vehicle id="335" type="passenger" depart="151.05">
        <route edges="left0A0 left0A0.250.00 A0right0"/>
    </vehicle>
    <vehicle id="336" type="passenger" depart="151.30">
        <route edges="top0A0 top0A0.250.00"/>
    </vehicle>
    <vehicle id="337" type="passenger" depart="152.00">
        <route edges="right0A0 right0A0.250.00"/>
    </vehicle>
    <vehicle id="338" type="passenger" depart="152.10">
        <route edges="bottom0A0 bottom0A0.250.00 A0left0"/>
    </vehicle>
    <vehicle id="339" type="passenger" depart="152.55">
        <route edges="left0A0 left0A0.250.00 A0top0"/>
    </vehicle>
    <vehicle id="340" type="passenger" depart="153.05">
        <route edges="left0A0 left0A0.250.00 A0bottom0"/>
    </vehicle>
    <vehicle id="341" type="passenger" depart="153.50">
        <route edges="top0A0.250.00 A0right0"/>
    </vehicle>
    <vehicle id="344" type="passenger" depart="155.15">
        <route edges="bottom0A0 bottom0A0.250.00 A0top0"/>
    </vehicle>
    <vehicle id="345" type="passenger" depart="155.25">
        <route edges="right0A0 right0A0.250.00 A0left0"/>
    </vehicle>
    <vehicle id="350" type="passenger" depart="159.15">
        <route edges="left0A0.250.00"/>
    </vehicle>
    <vehicle id="351" type="passenger" depart="159.25">
        <route edges="right0A0.250.00 A0top0"/>
    </vehicle>
    <vehicle id="355" type="passenger" depart="160.70">
        <route edges="right0A0 right0A0.250.00 A0top0"/>
    </vehicle>
    <vehicle id="356" type="passenger" depart="160.70">
        <route edges="right0A0.250.00 A0bottom0"/>
    </vehicle>
    <vehicle id="358" type="passenger" depart="161.85">
        <route edges="right0A0 right0A0.250.00 A0left0"/>
    </vehicle>
    <vehicle id="359" type="passenger" depart="163.10">
        <route edges="right0A0.250.00 A0top0"/>
    </vehicle>
    <vehicle id="360" type="passenger" depart="163.75">
        <route edges="right0A0.250.00"/>
    </vehicle>
    <vehicle id="362" type="passenger" depart="163.90">
        <route edges="bottom0A0.250.00 A0left0"/>
    </vehicle>
    <vehicle id="365" type="passenger" depart="164.30">
        <route edges="bottom0A0 bottom0A0.250.00 A0left0"/>
    </vehicle>
    <vehicle id="367" type="passenger" depart="164.45">
        <route edges="top0A0.250.00 A0bottom0"/>
    </vehicle>
    <vehicle id="368" type="passenger" depart="165.30">
        <route edges="top0A0 top0A0.250.00 A0right0"/>
    </vehicle>
    <vehicle id="369" type="passenger" depart="165.45">
        <route edges="bottom0A0.250.00 A0left0"/>
    </vehicle>
    <vehicle id="370" type="passenger" depart="168.05">
        <route edges="left0A0.250.00 A0right0"/>
    </vehicle>
    <vehicle id="371" type="passenger" depart="168.25">
        <route edges="bottom0A0.250.00"/>
    </vehicle>
    <vehicle id="372" type="passenger" depart="169.05">
        <route edges="right0A0 right0A0.250.00"/>
    </vehicle>
    <vehicle id="373" type="passenger" depart="169.65">
        <route edges="bottom0A0.250.00"/>
    </vehicle>
    <vehicle id="375" type="passenger" depart="170.10">
        <route edges="right0A0 right0A0.250.00 A0left0"/>
    </vehicle>
    <vehicle id="376" type="passenger" depart="170.70">
        <route edges="bottom0A0.250.00 A0top0"/>
    </vehicle>
    <vehicle id="377" type="passenger" depart="170.90">
        <route edges="bottom0A0.250.00 A0top0"/>
    </vehicle>
    <vehicle id="380" type="passenger" depart="175.75">
        <route edges="left0A0.250.00 A0right0"/>
    </vehicle>
    <vehicle id="383" type="passenger" depart="178.90">
        <route edges="right0A0 right0A0.250.00 A0bottom0"/>
    </vehicle>
    <vehicle id="384" type="passenger" depart="179.20">
        <route edges="left0A0.250.00"/>
    </vehicle>
    <vehicle id="386" type="passenger" depart="180.25">
        <route edges="bottom0A0.250.00 A0right0"/>
    </vehicle>
    <vehicle id="391" type="passenger" depart="182.60">
        <route edges="top0A0 top0A0.250.00 A0bottom0"/>
    </vehicle>
    <vehicle id="392" type="passenger" depart="182.70">
        <route edges="left0A0.250.00"/>
    </vehicle>
    <vehicle id="395" type="passenger" depart="183.55">
        <route edges="left0A0 left0A0.250.00 A0right0"/>
    </vehicle>
    <vehicle id="397" type="passenger" depart="185.35">
        <route edges="left0A0 left0A0.250.00 A0right0"/>
    </vehicle>
    <vehicle id="398" type="passenger" depart="186.30">
        <route edges="right0A0 right0A0.250.00 A0bottom0"/>
    </vehicle>
    <vehicle id="399" type="passenger" depart="186.30">
        <route edges="left0A0 left0A0.250.00"/>
    </vehicle>
    <vehicle id="401" type="passenger" depart="186.80">
        <route edges="right0A0.250.00"/>
    </vehicle>
    <vehicle id="403" type="passenger" depart="188.40">
        <route edges="top0A0 top0A0.250.00"/>
    </vehicle>
    <vehicle id="407" type="passenger" depart="190.00">
        <route edges="left0A0.250.00"/>
    </vehicle>
    <vehicle id="408" type="passenger" depart="190.20">
        <route edges="left0A0 left0A0.250.00"/>
    </vehicle>
    <vehicle id="409" type="passenger" depart="190.25">
        <route edges="left0A0 left0A0.250.00"/>
    </vehicle>
    <vehicle id="411" type="passenger" depart="191.85">
        <route edges="left0A0.250.00"/>
    </vehicle>
    <vehicle id="414" type="passenger" depart="192.40">
        <route edges="bottom0A0 bottom0A0.250.00 A0top0"/>
    </vehicle>
    <vehicle id="417" type="passenger" depart="194.00">
        <route edges="bottom0A0.250.00"/>
    </vehicle>
    <vehicle id="418" type="passenger" depart="194.65">
        <route edges="top0A0.250.00 A0bottom0"/>
    </vehicle>
    <vehicle id="419" type="passenger" depart="194.70">
        <route edges="top0A0.250.00 A0right0"/>
    </vehicle>
    <vehicle id="421" type="passenger" depart="194.70">
        <route edges="top0A0 top0A0.250.00"/>
    </vehicle>
    <vehicle id="425" type="passenger" depart="195.65">
        <route edges="bottom0A0.250.00 A0right0"/>
    </vehicle>
    <vehicle id="426" type="passenger" depart="196.75">
        <route edges="top0A0 top0A0.250.00"/>
    </vehicle>
    <vehicle id="427" type="passenger" depart="197.00">
        <route edges="top0A0.250.00"/>
    </vehicle>
    <vehicle id="428" type="passenger" depart="197.65">
        <route edges="left0A0.250.00 A0right0"/>
    </vehicle>
    <vehicle id="434" type="passenger" depart="202.55">
        <route edges="bottom0A0 bottom0A0.250.00 A0right0"/>
    </vehicle>
    <vehicle id="436" type="passenger" depart="204.25">
        <route edges="bottom0A0.250.00 A0left0"/>
    </vehicle>
    <vehicle id="439" type="passenger" depart="205.20">
        <route edges="right0A0 right0A0.250.00 A0bottom0"/>
    </vehicle>
    <vehicle id="441" type="passenger" depart="205.55">
        <route edges="right0A0.250.00 A0left0"/>
    </vehicle>
    <vehicle id="443" type="passenger" depart="206.30">
        <route edges="bottom0A0.250.00 A0right0"/>
    </vehicle>
    <vehicle id="447" type="passenger" depart="208.65">
        <route edges="top0A0 top0A0.250.00 A0right0"/>
    </vehicle>
    <vehicle id="449" type="passenger" depart="209.75">
        <route edges="bottom0A0.250.00 A0top0"/>
    </vehicle>
    <vehicle id="450" type="passenger" depart="210.05">
        <route edges="right0A0.250.00"/>
    </vehicle>
    <vehicle id="451" type="passenger" depart="211.10">
        <route edges="left0A0 left0A0.250.00 A0bottom0"/>
    </vehicle>
    <vehicle id="454" type="passenger" depart="212.85">
        <route edges="left0A0.250.00 A0bottom0"/>
    </vehicle>
    <vehicle id="455" type="passenger" depart="212.95">
        <route edges="top0A0 top0A0.250.00"/>
    </vehicle>
    <vehicle id="456" type="passenger" depart="213.00">
        <route edges="right0A0.250.00 A0top0"/>
    </vehicle>
    <vehicle id="457" type="passenger" depart="213.55">
        <route edges="left0A0.250.00"/>
    </vehicle>
    <vehicle id="458" type="passenger" depart="213.65">
        <route edges="bottom0A0 bottom0A0.250.00 A0top0"/>
    </vehicle>
    <vehicle id="459" type="passenger" depart="213.70">
        <route edges="left0A0.250.00"/>
    </vehicle>
    <vehicle id="462" type="passenger" depart="214.00">
        <route edges="top0A0 top0A0.250.00 A0bottom0"/>
    </vehicle>
    <vehicle id="463" type="passenger" depart="215.60">
        <route edges="left0A0.250.00"/>
    </vehicle>
    <vehicle id="464" type="passenger" depart="215.90">
        <route edges="top0A0.250.00"/>
    </vehicle>
    <vehicle id="465" type="passenger" depart="216.00">
        <route edges="top0A0 top0A0.250.00 A0right0"/>
    </vehicle>
    <vehicle id="467" type="passenger" depart="216.80">
        <route edges="top0A0.250.00 A0bottom0"/>
    </vehicle>
    <vehicle id="468" type="passenger" depart="217.05">
        <route edges="bottom0A0 bottom0A0.250.00"/>
    </vehicle>
    <vehicle id="470" type="passenger" depart="217.20">
        <route edges="right0A0.250.00 A0bottom0"/>
    </vehicle>
    <vehicle id="474" type="passenger" depart="219.45">
        <route edges="bottom0A0.250.00"/>
    </vehicle>
    <vehicle id="476" type="passenger" depart="220.70">
        <route edges="right0A0 right0A0.250.00 A0top0"/>
    </vehicle>
    <vehicle id="481" type="passenger" depart="222.40">
        <route edges="bottom0A0.250.00"/>
    </vehicle>
    <vehicle id="482" type="passenger" depart="222.55">
        <route edges="left0A0.250.00"/>
    </vehicle>