<?xml version="1.0" encoding="UTF-8"?>

<!-- generated on 2023-04-26 16:57:08.386623 by randomTrips.py UNKNOWN
<configuration>
    <begin value="0"/>
    <end value="900"/>
    <insertion-rate value="8000.0"/>
    <net-file value="/home/franky3er/Documents/code/HieraGLight/scenarios/grid/1x1-500m/train/84-scenario/network.net.xml"/>
    <random value="True"/>
    <random-depart value="True"/>
    <route-file value="/home/franky3er/Documents/code/HieraGLight/scenarios/grid/1x1-500m/train/84-scenario/routes.rou.xml"/>
    <seed value="84"/>
    <output-trip-file value="/home/franky3er/Documents/code/HieraGLight/scenarios/grid/1x1-500m/train/84-scenario/trips.trips.xml"/>
    <vehicle-class value="passenger"/>
</configuration>
-->

<routes xmlns:xsi="http://www.w3.org/2001/XMLSchema-instance" xsi:noNamespaceSchemaLocation="http://sumo.dlr.de/xsd/routes_file.xsd">
    <vType id="passenger" vClass="passenger"/>
    <trip id="0" depart="0.05" from="right0A0.250.00" to="right0A0.250.00" type="passenger"/>
    <trip id="1" depart="0.30" from="right0A0.250.00" to="left0A0.250.00" type="passenger"/>
    <trip id="2" depart="1.25" from="top0A0" to="top0A0.250.00" type="passenger"/>
    <trip id="3" depart="2.45" from="right0A0" to="A0top0" type="passenger"/>
    <trip id="4" depart="2.75" from="top0A0.250.00" to="A0right0" type="passenger"/>
    <trip id="5" depart="3.95" from="right0A0.250.00" to="A0top0" type="passenger"/>
    <trip id="6" depart="4.20" from="right0A0" to="top0A0.250.00" type="passenger"/>
    <trip id="7" depart="4.35" from="top0A0.250.00" to="left0A0.250.00" type="passenger"/>
    <trip id="8" depart="5.00" from="right0A0.250.00" to="A0right0" type="passenger"/>
    <trip id="9" depart="5.55" from="left0A0" to="right0A0.250.00" type="passenger"/>
    <trip id="10" depart="5.85" from="right0A0.250.00" to="right0A0.250.00" type="passenger"/>
    <trip id="11" depart="5.95" from="right0A0" to="A0right0" type="passenger"/>
    <trip id="12" depart="6.00" from="right0A0.250.00" to="A0top0" type="passenger"/>
    <trip id="13" depart="6.05" from="right0A0.250.00" to="A0left0" type="passenger"/>
    <trip id="14" depart="6.35" from="right0A0" to="A0right0" type="passenger"/>
    <trip id="15" depart="7.35" from="left0A0.250.00" to="A0left0" type="passenger"/>
    <trip id="16" depart="8.30" from="right0A0" to="left0A0.250.00" type="passenger"/>
    <trip id="17" depart="8.35" from="left0A0" to="right0A0.250.00" type="passenger"/>
    <trip id="18" depart="9.15" from="right0A0.250.00" to="A0left0" type="passenger"/>
    <trip id="19" depart="9.50" from="top0A0" to="top0A0.250.00" type="passenger"/>
    <trip id="20" depart="9.55" from="bottom0A0.250.00" to="top0A0.250.00" type="passenger"/>
    <trip id="21" depart="9.75" from="bottom0A0.250.00" to="A0top0" type="passenger"/>
    <trip id="22" depart="10.30" from="top0A0" to="top0A0.250.00" type="passenger"/>
    <trip id="23" depart="10.45" from="right0A0" to="A0right0" type="passenger"/>
    <trip id="24" depart="10.50" from="right0A0" to="top0A0.250.00" type="passenger"/>
    <trip id="25" depart="10.70" from="bottom0A0" to="right0A0.250.00" type="passenger"/>
    <trip id="26" depart="10.85" from="left0A0.250.00" to="right0A0.250.00" type="passenger"/>
    <trip id="27" depart="11.50" from="left0A0" to="right0A0.250.00" type="passenger"/>
    <trip id="28" depart="11.65" from="left0A0.250.00" to="A0bottom0" type="passenger"/>
    <trip id="29" depart="12.65" from="left0A0.250.00" to="A0bottom0" type="passenger"/>
    <trip id="30" depart="12.80" from="left0A0.250.00" to="A0right0" type="passenger"/>
    <trip id="31" depart="13.10" from="left0A0" to="A0left0" type="passenger"/>
    <trip id="32" depart="13.85" from="right0A0.250.00" to="A0bottom0" type="passenger"/>
    <trip id="33" depart="13.85" from="top0A0" to="A0left0" type="passenger"/>
    <trip id="34" depart="16.25" from="left0A0" to="top0A0.250.00" type="passenger"/>
    <trip id="35" depart="16.25" from="bottom0A0.250.00" to="A0bottom0" type="passenger"/>
    <trip id="36" depart="16.60" from="right0A0" to="A0top0" type="passenger"/>
    <trip id="37" depart="16.80" from="top0A0" to="top0A0.250.00" type="passenger"/>
    <trip id="38" depart="17.30" from="top0A0" to="bottom0A0.250.00" type="passenger"/>
    <trip id="39" depart="18.90" from="right0A0" to="A0left0" type="passenger"/>
    <trip id="40" depart="19.15" from="top0A0" to="bottom0A0.250.00" type="passenger"/>
    <trip id="41" depart="19.30" from="bottom0A0" to="right0A0.250.00" type="passenger"/>
    <trip id="42" depart="19.45" from="right0A0.250.00" to="A0left0" type="passenger"/>
    <trip id="43" depart="19.60" from="left0A0.250.00" to="A0left0" type="passenger"/>
    <trip id="44" depart="19.90" from="bottom0A0.250.00" to="A0right0" type="passenger"/>
    <trip id="45" depart="20.25" from="right0A0.250.00" to="A0left0" type="passenger"/>
    <trip id="46" depart="21.45" from="bottom0A0.250.00" to="right0A0.250.00" type="passenger"/>
    <trip id="47" depart="21.90" from="bottom0A0.250.00" to="left0A0.250.00" type="passenger"/>
    <trip id="48" depart="22.10" from="left0A0.250.00" to="A0right0" type="passenger"/>
    <trip id="49" depart="22.10" from="left0A0.250.00" to="bottom0A0.250.00" type="passenger"/>
    <trip id="50" depart="22.45" from="right0A0" to="A0left0" type="passenger"/>
    <trip id="51" depart="23.00" from="left0A0" to="right0A0.250.00" type="passenger"/>
    <trip id="52" depart="23.25" from="right0A0.250.00" to="A0top0" type="passenger"/>
    <trip id="53" depart="23.35" from="top0A0.250.00" to="A0right0" type="passenger"/>
    <trip id="54" depart="23.40" from="right0A0" to="A0bottom0" type="passenger"/>
    <trip id="55" depart="24.05" from="bottom0A0" to="A0top0" type="passenger"/>
    <trip id="56" depart="25.00" from="left0A0" to="A0top0" type="passenger"/>
    <trip id="57" depart="25.20" from="bottom0A0.250.00" to="top0A0.250.00" type="passenger"/>
    <trip id="58" depart="25.65" from="top0A0.250.00" to="right0A0.250.00" type="passenger"/>
    <trip id="59" depart="25.90" from="top0A0.250.00" to="A0left0" type="passenger"/>
    <trip id="60" depart="26.55" from="bottom0A0" to="A0right0" type="passenger"/>
    <trip id="61" depart="26.80" from="left0A0" to="A0left0" type="passenger"/>
    <trip id="62" depart="27.95" from="bottom0A0" to="bottom0A0.250.00" type="passenger"/>
    <trip id="63" depart="28.40" from="right0A0.250.00" to="top0A0.250.00" type="passenger"/>
    <trip id="64" depart="29.65" from="left0A0.250.00" to="top0A0.250.00" type="passenger"/>
    <trip id="65" depart="29.65" from="left0A0.250.00" to="bottom0A0.250.00" type="passenger"/>
    <trip id="66" depart="30.00" from="left0A0.250.00" to="right0A0.250.00" type="passenger"/>
    <trip id="67" depart="30.30" from="right0A0.250.00" to="left0A0.250.00" type="passenger"/>
    <trip id="68" depart="30.45" from="right0A0" to="bottom0A0.250.00" type="passenger"/>
    <trip id="69" depart="30.90" from="bottom0A0" to="top0A0.250.00" type="passenger"/>
    <trip id="70" depart="32.25" from="bottom0A0" to="right0A0.250.00" type="passenger"/>
    <trip id="71" depart="32.50" from="right0A0" to="A0top0" type="passenger"/>
    <trip id="72" depart="34.00" from="left0A0.250.00" to="A0bottom0" type="passenger"/>
    <trip id="73" depart="34.15" from="left0A0" to="top0A0.250.00" type="passenger"/>
    <trip id="74" depart="35.35" from="bottom0A0.250.00" to="A0top0" type="passenger"/>
    <trip id="75" depart="35.95" from="top0A0.250.00" to="A0top0" type="passenger"/>
    <trip id="76" depart="36.95" from="top0A0.250.00" to="A0left0" type="passenger"/>
    <trip id="77" depart="37.60" from="right0A0" to="A0top0" type="passenger"/>
    <trip id="78" depart="37.95" from="left0A0" to="right0A0.250.00" type="passenger"/>
    <trip id="79" depart="38.15" from="right0A0" to="A0left0" type="passenger"/>
    <trip id="80" depart="38.90" from="top0A0.250.00" to="bottom0A0.250.00" type="passenger"/>
    <trip id="81" depart="39.35" from="right0A0" to="left0A0.250.00" type="passenger"/>
    <trip id="82" depart="39.75" from="bottom0A0.250.00" to="A0top0" type="passenger"/>
    <trip id="83" depart="40.10" from="bottom0A0.250.00" to="A0top0" type="passenger"/>
    <trip id="84" depart="41.50" from="right0A0" to="A0left0" type="passenger"/>
    <trip id="85" depart="42.25" from="bottom0A0.250.00" to="A0left0" type="passenger"/>
    <trip id="86" depart="42.30" from="right0A0.250.00" to="A0right0" type="passenger"/>
    <trip id="87" depart="43.55" from="right0A0.250.00" to="A0right0" type="passenger"/>
    <trip id="88" depart="43.70" from="right0A0" to="A0right0" type="passenger"/>
    <trip id="89" depart="45.25" from="left0A0" to="A0left0" type="passenger"/>
    <trip id="90" depart="45.40" from="right0A0.250.00" to="top0A0.250.00" type="passenger"/>
    <trip id="91" depart="45.65" from="bottom0A0.250.00" to="A0left0" type="passenger"/>
    <trip id="92" depart="45.75" from="right0A0" to="A0bottom0" type="passenger"/>
    <trip id="93" depart="46.30" from="right0A0.250.00" to="left0A0.250.00" type="passenger"/>
    <trip id="94" depart="46.75" from="top0A0.250.00" to="top0A0.250.00" type="passenger"/>
    <trip id="95" depart="46.80" from="bottom0A0.250.00" to="A0right0" type="passenger"/>
    <trip id="96" depart="47.10" from="bottom0A0.250.00" to="right0A0.250.00" type="passenger"/>
    <trip id="97" depart="47.25" from="bottom0A0.250.00" to="A0right0" type="passenger"/>
    <trip id="98" depart="47.25" from="top0A0" to="A0bottom0" type="passenger"/>
    <trip id="99" depart="47.60" from="bottom0A0.250.00" to="A0bottom0" type="passenger"/>
    <trip id="100" depart="47.80" from="left0A0" to="left0A0.250.00" type="passenger"/>
    <trip id="101" depart="48.40" from="right0A0.250.00" to="A0right0" type="passenger"/>
    <trip id="102" depart="48.70" from="right0A0" to="A0right0" type="passenger"/>
    <trip id="103" depart="50.05" from="bottom0A0" to="A0top0" type="passenger"/>
    <trip id="104" depart="50.15" from="bottom0A0" to="A0right0" type="passenger"/>
    <trip id="105" depart="50.35" from="left0A0.250.00" to="A0top0" type="passenger"/>
    <trip id="106" depart="50.75" from="top0A0" to="left0A0.250.00" type="passenger"/>
    <trip id="107" depart="51.05" from="left0A0.250.00" to="right0A0.250.00" type="passenger"/>
    <trip id="108" depart="51.20" from="top0A0" to="A0bottom0" type="passenger"/>
    <trip id="109" depart="51.40" from="left0A0" to="bottom0A0.250.00" type="passenger"/>
    <trip id="110" depart="51.80" from="top0A0.250.00" to="right0A0.250.00" type="passenger"/>
    <trip id="111" depart="52.15" from="bottom0A0.250.00" to="A0bottom0" type="passenger"/>
    <trip id="112" depart="52.25" from="left0A0" to="right0A0.250.00" type="passenger"/>
    <trip id="113" depart="53.25" from="right0A0.250.00" to="A0left0" type="passenger"/>
    <trip id="114" depart="54.55" from="right0A0" to="A0bottom0" type="passenger"/>
    <trip id="115" depart="54.95" from="right0A0" to="right0A0.250.00" type="passenger"/>
    <trip id="116" depart="55.70" from="left0A0.250.00" to="bottom0A0.250.00" type="passenger"/>
    <trip id="117" depart="55.75" from="bottom0A0" to="right0A0.250.00" type="passenger"/>
    <trip id="118" depart="57.15" from="bottom0A0.250.00" to="top0A0.250.00" type="passenger"/>
    <trip id="119" depart="57.15" from="right0A0.250.00" to="A0left0" type="passenger"/>
    <trip id="120" depart="58.30" from="bottom0A0.250.00" to="A0top0" type="passenger"/>
    <trip id="121" depart="58.35" from="right0A0.250.00" to="A0right0" type="passenger"/>
    <trip id="122" depart="59.20" from="left0A0" to="A0bottom0" type="passenger"/>
    <trip id="123" depart="59.35" from="bottom0A0.250.00" to="right0A0.250.00" type="passenger"/>
    <trip id="124" depart="59.40" from="bottom0A0" to="bottom0A0.250.00" type="passenger"/>
    <trip id="125" depart="59.55" from="left0A0" to="A0bottom0" type="passenger"/>
    <trip id="126" depart="59.80" from="bottom0A0.250.00" to="left0A0.250.00" type="passenger"/>
    <trip id="127" depart="60.00" from="left0A0" to="top0A0.250.00" type="passenger"/>
    <trip id="128" depart="60.10" from="bottom0A0.250.00" to="right0A0.250.00" type="passenger"/>
    <trip id="129" depart="60.40" from="bottom0A0" to="top0A0.250.00" type="passenger"/>
    <trip id="130" depart="61.20" from="left0A0" to="A0bottom0" type="passenger"/>
    <trip id="131" depart="61.20" from="right0A0" to="A0bottom0" type="passenger"/>
    <trip id="132" depart="61.40" from="right0A0.250.00" to="A0right0" type="passenger"/>
    <trip id="133" depart="61.45" from="bottom0A0" to="A0bottom0" type="passenger"/>
    <trip id="134" depart="63.65" from="top0A0" to="bottom0A0.250.00" type="passenger"/>
    <trip id="135" depart="64.80" from="top0A0" to="A0top0" type="passenger"/>
    <trip id="136" depart="64.90" from="left0A0.250.00" to="A0bottom0" type="passenger"/>
    <trip id="137" depart="65.20" from="left0A0" to="A0right0" type="passenger"/>
    <trip id="138" depart="65.55" from="left0A0" to="top0A0.250.00" type="passenger"/>
    <trip id="139" depart="65.70" from="left0A0" to="right0A0.250.00" type="passenger"/>
    <trip id="140" depart="66.10" from="right0A0" to="A0top0" type="passenger"/>
    <trip id="141" depart="66.55" from="top0A0" to="A0top0" type="passenger"/>
    <trip id="142" depart="66.75" from="top0A0" to="A0bottom0" type="passenger"/>
    <trip id="143" depart="66.80" from="bottom0A0" to="A0bottom0" type="passenger"/>
    <trip id="144" depart="67.35" from="bottom0A0" to="A0left0" type="passenger"/>
    <trip id="145" depart="69.80" from="bottom0A0" to="right0A0.250.00" type="passenger"/>
    <trip id="146" depart="69.80" from="bottom0A0" to="A0top0" type="passenger"/>
    <trip id="147" depart="69.95" from="right0A0.250.00" to="top0A0.250.00" type="passenger"/>
    <trip id="148" depart="70.10" from="bottom0A0.250.00" to="top0A0.250.00" type="passenger"/>
    <trip id="149" depart="70.15" from="top0A0.250.00" to="A0bottom0" type="passenger"/>
    <trip id="150" depart="70.65" from="top0A0" to="right0A0.250.00" type="passenger"/>
    <trip id="151" depart="71.80" from="right0A0" to="top0A0.250.00" type="passenger"/>
    <trip id="152" depart="73.20" from="top0A0.250.00" to="A0bottom0" type="passenger"/>
    <trip id="153" depart="73.30" from="left0A0" to="A0top0" type="passenger"/>
    <trip id="154" depart="73.80" from="left0A0" to="A0left0" type="passenger"/>
    <trip id="155" depart="74.35" from="bottom0A0" to="right0A0.250.00" type="passenger"/>
    <trip id="156" depart="74.40" from="bottom0A0" to="left0A0.250.00" type="passenger"/>
    <trip id="157" depart="74.90" from="top0A0.250.00" to="right0A0.250.00" type="passenger"/>
    <trip id="158" depart="75.15" from="right0A0.250.00" to="left0A0.250.00" type="passenger"/>
    <trip id="159" depart="76.60" from="top0A0.250.00" to="left0A0.250.00" type="passenger"/>
    <trip id="160" depart="76.75" from="bottom0A0" to="A0left0" type="passenger"/>
    <trip id="161" depart="77.15" from="left0A0.250.00" to="left0A0.250.00" type="passenger"/>
    <trip id="162" depart="77.15" from="right0A0" to="A0right0" type="passenger"/>
    <trip id="163" depart="77.75" from="right0A0" to="top0A0.250.00" type="passenger"/>
    <trip id="164" depart="77.75" from="left0A0" to="bottom0A0.250.00" type="passenger"/>
    <trip id="165" depart="77.80" from="bottom0A0.250.00" to="right0A0.250.00" type="passenger"/>
    <trip id="166" depart="77.90" from="right0A0.250.00" to="bottom0A0.250.00" type="passenger"/>
    <trip id="167" depart="78.40" from="top0A0.250.00" to="A0top0" type="passenger"/>
    <trip id="168" depart="78.80" from="right0A0" to="left0A0.250.00" type="passenger"/>
    <trip id="169" depart="79.20" from="right0A0" to="A0bottom0" type="passenger"/>
    <trip id="170" depart="80.25" from="top0A0" to="left0A0.250.00" type="passenger"/>
    <trip id="171" depart="80.40" from="top0A0.250.00" to="A0top0" type="passenger"/>
    <trip id="172" depart="80.95" from="right0A0" to="A0bottom0" type="passenger"/>
    <trip id="173" depart="81.05" from="right0A0" to="A0bottom0" type="passenger"/>
    <trip id="174" depart="81.60" from="right0A0.250.00" to="bottom0A0.250.00" type="passenger"/>
    <trip id="175" depart="81.60" from="left0A0.250.00" to="right0A0.250.00" type="passenger"/>
    <trip id="176" depart="81.70" from="top0A0.250.00" to="A0right0" type="passenger"/>
    <trip id="177" depart="82.05" from="bottom0A0.250.00" to="A0left0" type="passenger"/>
    <trip id="178" depart="82.20" from="top0A0" to="bottom0A0.250.00" type="passenger"/>
    <trip id="179" depart="82.25" from="left0A0.250.00" to="bottom0A0.250.00" type="passenger"/>
    <trip id="180" depart="82.65" from="right0A0" to="top0A0.250.00" type="passenger"/>
    <trip id="181" depart="83.25" from="top0A0" to="A0top0" type="passenger"/>
    <trip id="182" depart="83.70" from="left0A0" to="A0bottom0" type="passenger"/>
    <trip id="183" depart="83.80" from="top0A0.250.00" to="left0A0.250.00" type="passenger"/>
    <trip id="184" depart="83.95" from="top0A0" to="top0A0.250.00" type="passenger"/>
    <trip id="185" depart="84.10" from="top0A0" to="A0left0" type="passenger"/>
    <trip id="186" depart="84.50" from="top0A0.250.00" to="A0left0" type="passenger"/>
    <trip id="187" depart="85.10" from="left0A0.250.00" to="A0top0" type="passenger"/>
    <trip id="188" depart="85.15" from="left0A0" to="A0bottom0" type="passenger"/>
    <trip id="189" depart="86.15" from="bottom0A0" to="A0right0" type="passenger"/>
    <trip id="190" depart="86.35" from="right0A0" to="top0A0.250.00" type="passenger"/>
    <trip id="191" depart="87.25" from="bottom0A0.250.00" to="A0right0" type="passenger"/>
    <trip id="192" depart="87.30" from="left0A0" to="A0top0" type="passenger"/>
    <trip id="193" depart="87.35" from="top0A0.250.00" to="A0right0" type="passenger"/>
    <trip id="194" depart="87.50" from="bottom0A0.250.00" to="top0A0.250.00" type="passenger"/>
    <trip id="195" depart="88.00" from="top0A0.250.00" to="A0bottom0" type="passenger"/>
    <trip id="196" depart="88.90" from="top0A0.250.00" to="top0A0.250.00" type="passenger"/>
    <trip id="197" depart="88.90" from="right0A0.250.00" to="top0A0.250.00" type="passenger"/>
    <trip id="198" depart="89.70" from="left0A0.250.00" to="left0A0.250.00" type="passenger"/>
    <trip id="199" depart="89.75" from="left0A0.250.00" to="A0right0" type="passenger"/>
    <trip id="200" depart="90.50" from="bottom0A0" to="left0A0.250.00" type="passenger"/>
    <trip id="201" depart="90.75" from="left0A0" to="right0A0.250.00" type="passenger"/>
    <trip id="202" depart="90.80" from="left0A0.250.00" to="A0bottom0" type="passenger"/>
    <trip id="203" depart="92.10" from="right0A0" to="right0A0.250.00" type="passenger"/>
    <trip id="204" depart="92.95" from="bottom0A0.250.00" to="top0A0.250.00" type="passenger"/>
    <trip id="205" depart="93.15" from="left0A0" to="right0A0.250.00" type="passenger"/>
    <trip id="206" depart="93.30" from="left0A0" to="left0A0.250.00" type="passenger"/>
    <trip id="207" depart="93.40" from="top0A0.250.00" to="left0A0.250.00" type="passenger"/>
    <trip id="208" depart="94.00" from="left0A0" to="bottom0A0.250.00" type="passenger"/>
    <trip id="209" depart="94.00" from="bottom0A0.250.00" to="top0A0.250.00" type="passenger"/>
    <trip id="210" depart="94.05" from="left0A0.250.00" to="A0top0" type="passenger"/>
    <trip id="211" depart="96.20" from="left0A0.250.00" to="left0A0.250.00" type="passenger"/>
    <trip id="212" depart="97.05" from="right0A0.250.00" to="left0A0.250.00" type="passenger"/>
    <trip id="213" depart="97.60" from="top0A0.250.00" to="A0top0" type="passenger"/>
    <trip id="214" depart="97.85" from="top0A0.250.00" to="A0left0" type="passenger"/>
    <trip id="215" depart="97.95" from="left0A0.250.00" to="left0A0.250.00" type="passenger"/>
    <trip id="216" depart="98.35" from="bottom0A0" to="left0A0.250.00" type="passenger"/>
    <trip id="217" depart="98.35" from="right0A0.250.00" to="A0left0" type="passenger"/>
    <trip id="218" depart="98.80" from="top0A0" to="A0top0" type="passenger"/>
    <trip id="219" depart="99.90" from="top0A0.250.00" to="left0A0.250.00" type="passenger"/>
    <trip id="220" depart="100.60" from="left0A0" to="top0A0.250.00" type="passenger"/>
    <trip id="221" depart="101.40" from="top0A0" to="bottom0A0.250.00" type="passenger"/>
    <trip id="222" depart="102.40" from="bottom0A0.250.00" to="left0A0.250.00" type="passenger"/>
    <trip id="223" depart="102.75" from="right0A0" to="right0A0.250.00" type="passenger"/>
    <trip id="224" depart="104.30" from="right0A0.250.00" to="bottom0A0.250.00" type="passenger"/>
    <trip id="225" depart="105.05" from="bottom0A0" to="A0bottom0" type="passenger"/>
    <trip id="226" depart="105.10" from="left0A0" to="top0A0.250.00" type="passenger"/>
    <trip id="227" depart="106.60" from="bottom0A0" to="left0A0.250.00" type="passenger"/>
    <trip id="228" depart="107.30" from="left0A0" to="bottom0A0.250.00" type="passenger"/>
    <trip id="229" depart="107.60" from="left0A0" to="bottom0A0.250.00" type="passenger"/>
    <trip id="230" depart="108.45" from="top0A0.250.00" to="bottom0A0.250.00" type="passenger"/>
    <trip id="231" depart="108.65" from="right0A0.250.00" to="A0left0" type="passenger"/>
    <trip id="232" depart="109.35" from="left0A0.250.00" to="A0right0" type="passenger"/>
    <trip id="233" depart="109.70" from="bottom0A0" to="A0top0" type="passenger"/>
    <trip id="234" depart="109.75" from="left0A0" to="A0left0" type="passenger"/>
    <trip id="235" depart="109.80" from="bottom0A0" to="A0right0" type="passenger"/>
    <trip id="236" depart="109.80" from="bottom0A0" to="right0A0.250.00" type="passenger"/>
    <trip id="237" depart="110.00" from="bottom0A0.250.00" to="A0left0" type="passenger"/>
    <trip id="238" depart="110.15" from="top0A0" to="A0left0" type="passenger"/>
    <trip id="239" depart="110.55" from="bottom0A0" to="left0A0.250.00" type="passenger"/>
    <trip id="240" depart="111.25" from="left0A0" to="right0A0.250.00" type="passenger"/>
    <trip id="241" depart="111.45" from="right0A0" to="A0bottom0" type="passenger"/>
    <trip id="242" depart="111.85" from="right0A0.250.00" to="left0A0.250.00" type="passenger"/>
    <trip id="243" depart="112.40" from="bottom0A0.250.00" to="A0bottom0" type="passenger"/>
    <trip id="244" depart="112.75" from="bottom0A0.250.00" to="A0left0" type="passenger"/>
    <trip id="245" depart="113.45" from="bottom0A0.250.00" to="A0bottom0" type="passenger"/>
    <trip id="246" depart="113.85" from="left0A0.250.00" to="right0A0.250.00" type="passenger"/>
    <trip id="247" depart="114.00" from="right0A0.250.00" to="A0right0" type="passenger"/>
    <trip id="248" depart="114.15" from="right0A0" to="A0left0" type="passenger"/>
    <trip id="249" depart="114.20" from="top0A0.250.00" to="A0right0" type="passenger"/>
    <trip id="250" depart="114.95" from="bottom0A0.250.00" to="A0left0" type="passenger"/>
    <trip id="251" depart="115.70" from="right0A0" to="A0right0" type="passenger"/>
    <trip id="252" depart="116.80" from="right0A0.250.00" to="bottom0A0.250.00" type="passenger"/>
    <trip id="253" depart="117.55" from="top0A0" to="bottom0A0.250.00" type="passenger"/>
    <trip id="254" depart="117.55" from="bottom0A0" to="right0A0.250.00" type="passenger"/>
    <trip id="255" depart="117.90" from="left0A0" to="left0A0.250.00" type="passenger"/>
    <trip id="256" depart="118.45" from="bottom0A0.250.00" to="A0bottom0" type="passenger"/>
    <trip id="257" depart="118.85" from="bottom0A0.250.00" to="bottom0A0.250.00" type="passenger"/>
    <trip id="258" depart="119.60" from="bottom0A0" to="A0right0" type="passenger"/>
    <trip id="259" depart="119.65" from="bottom0A0.250.00" to="A0left0" type="passenger"/>
    <trip id="260" depart="120.00" from="right0A0" to="right0A0.250.00" type="passenger"/>
    <trip id="261" depart="120.30" from="top0A0" to="A0right0" type="passenger"/>
    <trip id="262" depart="121.05" from="top0A0" to="right0A0.250.00" type="passenger"/>
    <trip id="263" depart="122.05" from="bottom0A0" to="bottom0A0.250.00" type="passenger"/>
    <trip id="264" depart="123.35" from="top0A0.250.00" to="A0top0" type="passenger"/>
    <trip id="265" depart="123.80" from="right0A0" to="A0top0" type="passenger"/>
    <trip id="266" depart="123.95" from="left0A0" to="left0A0.250.00" type="passenger"/>
    <trip id="267" depart="124.20" from="right0A0" to="top0A0.250.00" type="passenger"/>
    <trip id="268" depart="125.55" from="bottom0A0" to="top0A0.250.00" type="passenger"/>
    <trip id="269" depart="125.65" from="right0A0" to="A0left0" type="passenger"/>
    <trip id="270" depart="125.65" from="right0A0" to="A0bottom0" type="passenger"/>
    <trip id="271" depart="125.70" from="left0A0.250.00" to="top0A0.250.00" type="passenger"/>
    <trip id="272" depart="125.70" from="right0A0.250.00" to="A0right0" type="passenger"/>
    <trip id="273" depart="125.85" from="left0A0" to="A0top0" type="passenger"/>
    <trip id="274" depart="126.25" from="top0A0.250.00" to="right0A0.250.00" type="passenger"/>
    <trip id="275" depart="126.35" from="bottom0A0.250.00" to="bottom0A0.250.00" type="passenger"/>
    <trip id="276" depart="127.50" from="left0A0" to="A0top0" type="passenger"/>
    <trip id="277" depart="128.50" from="left0A0.250.00" to="A0top0" type="passenger"/>
    <trip id="278" depart="129.55" from="left0A0" to="right0A0.250.00" type="passenger"/>
    <trip id="279" depart="129.85" from="right0A0.250.00" to="top0A0.250.00" type="passenger"/>
    <trip id="280" depart="130.05" from="bottom0A0.250.00" to="A0bottom0" type="passenger"/>
    <trip id="281" depart="130.35" from="top0A0" to="left0A0.250.00" type="passenger"/>
    <trip id="282" depart="130.65" from="left0A0.250.00" to="A0bottom0" type="passenger"/>
    <trip id="283" depart="130.65" from="top0A0" to="right0A0.250.00" type="passenger"/>
    <trip id="284" depart="132.00" from="top0A0" to="top0A0.250.00" type="passenger"/>
    <trip id="285" depart="132.15" from="bottom0A0" to="right0A0.250.00" type="passenger"/>
    <trip id="286" depart="132.65" from="top0A0" to="top0A0.250.00" type="passenger"/>
    <trip id="287" depart="132.75" from="bottom0A0.250.00" to="A0bottom0" type="passenger"/>
    <trip id="288" depart="132.80" from="left0A0.250.00" to="top0A0.250.00" type="passenger"/>
    <trip id="289" depart="133.15" from="top0A0.250.00" to="right0A0.250.00" type="passenger"/>
    <trip id="290" depart="133.55" from="right0A0.250.00" to="left0A0.250.00" type="passenger"/>
    <trip id="291" depart="133.60" from="bottom0A0.250.00" to="bottom0A0.250.00" type="passenger"/>
    <trip id="292" depart="133.75" from="right0A0" to="A0top0" type="passenger"/>
    <trip id="293" depart="134.30" from="left0A0.250.00" to="top0A0.250.00" type="passenger"/>
    <trip id="294" depart="134.45" from="right0A0.250.00" to="left0A0.250.00" type="passenger"/>
    <trip id="295" depart="134.95" from="right0A0.250.00" to="top0A0.250.00" type="passenger"/>
    <trip id="296" depart="135.65" from="bottom0A0.250.00" to="right0A0.250.00" type="passenger"/>
    <trip id="297" depart="135.85" from="left0A0" to="left0A0.250.00" type="passenger"/>
    <trip id="298" depart="136.75" from="left0A0.250.00" to="A0bottom0" type="passenger"/>
    <trip id="299" depart="136.75" from="bottom0A0.250.00" to="right0A0.250.00" type="passenger"/>
    <trip id="300" depart="137.20" from="left0A0.250.00" to="A0bottom0" type="passenger"/>
    <trip id="301" depart="137.40" from="right0A0.250.00" to="left0A0.250.00" type="passenger"/>
    <trip id="302" depart="137.80" from="top0A0.250.00" to="A0top0" type="passenger"/>
    <trip id="303" depart="137.85" from="right0A0" to="left0A0.250.00" type="passenger"/>
    <trip id="304" depart="138.40" from="top0A0.250.00" to="A0left0" type="passenger"/>
    <trip id="305" depart="138.75" from="top0A0.250.00" to="left0A0.250.00" type="passenger"/>
    <trip id="306" depart="138.80" from="left0A0.250.00" to="left0A0.250.00" type="passenger"/>
    <trip id="307" depart="138.85" from="bottom0A0" to="bottom0A0.250.00" type="passenger"/>
    <trip id="308" depart="138.95" from="top0A0.250.00" to="A0bottom0" type="passenger"/>
    <trip id="309" depart="139.55" from="right0A0" to="left0A0.250.00" type="passenger"/>
    <trip id="310" depart="139.70" from="bottom0A0" to="A0bottom0" type="passenger"/>
    <trip id="311" depart="140.05" from="right0A0.250.00" to="bottom0A0.250.00" type="passenger"/>
    <trip id="312" depart="140.50" from="top0A0" to="left0A0.250.00" type="passenger"/>
    <trip id="313" depart="141.25" from="bottom0A0.250.00" to="top0A0.250.00" type="passenger"/>
    <trip id="314" depart="141.30" from="right0A0" to="bottom0A0.250.00" type="passenger"/>
    <trip id="315" depart="142.45" from="right0A0" to="A0top0" type="passenger"/>
    <trip id="316" depart="142.45" from="left0A0" to="A0right0" type="passenger"/>
    <trip id="317" depart="143.60" from="left0A0" to="top0A0.250.00" type="passenger"/>
    <trip id="318" depart="143.90" from="right0A0" to="A0top0" type="passenger"/>
    <trip id="319" depart="144.25" from="left0A0" to="A0left0" type="passenger"/>
    <trip id="320" depart="144.40" from="bottom0A0.250.00" to="left0A0.250.00" type="passenger"/>
    <trip id="321" depart="144.80" from="top0A0.250.00" to="bottom0A0.250.00" type="passenger"/>
    <trip id="322" depart="145.45" from="right0A0.250.00" to="A0top0" type="passenger"/>
    <trip id="323" depart="146.30" from="top0A0.250.00" to="A0left0" type="passenger"/>
    <trip id="324" depart="146.70" from="bottom0A0.250.00" to="A0left0" type="passenger"/>
    <trip id="325" depart="147.30" from="right0A0" to="A0right0" type="passenger"/>