<?xml version="1.0" encoding="UTF-8"?>

<!-- generated on 2023-02-12 18:47:00.234111 by randomTrips.py UNKNOWN
<configuration>
    <begin value="0"/>
    <end value="900"/>
    <insertion-rate value="12500.0"/>
    <net-file value="/home/franky3er/Documents/code/HieraGLight/scenarios/grid/5x5-150m/train/68-scenario/network.net.xml"/>
    <random value="True"/>
    <random-depart value="True"/>
    <route-file value="/home/franky3er/Documents/code/HieraGLight/scenarios/grid/5x5-150m/train/68-scenario/routes.rou.xml"/>
    <seed value="68"/>
    <output-trip-file value="/home/franky3er/Documents/code/HieraGLight/scenarios/grid/5x5-150m/train/68-scenario/trips.trips.xml"/>
    <vehicle-class value="passenger"/>
</configuration>
-->

<routes xmlns:xsi="http://www.w3.org/2001/XMLSchema-instance" xsi:noNamespaceSchemaLocation="http://sumo.dlr.de/xsd/routes_file.xsd">
    <vType id="passenger" vClass="passenger"/>
    <trip id="0" depart="0.06" from="C0D0.80.00" to="C4B4.80.00" type="passenger"/>
    <trip id="1" depart="0.18" from="A1A2.80.00" to="D4E4.80.00" type="passenger"/>
    <trip id="2" depart="0.51" from="E1E2.80.00" to="D2D1" type="passenger"/>
    <trip id="3" depart="0.55" from="B2B3" to="bottom0A0.80.00" type="passenger"/>
    <trip id="4" depart="1.02" from="E0E1" to="D3D4.80.00" type="passenger"/>
    <trip id="5" depart="1.09" from="E3E2" to="C1B1" type="passenger"/>
    <trip id="6" depart="1.22" from="D0E0.80.00" to="E3right3" type="passenger"/>
    <trip id="7" depart="1.44" from="B4C4.80.00" to="C0D0" type="passenger"/>
    <trip id="8" depart="1.78" from="E2D2.80.00" to="A4B4" type="passenger"/>
    <trip id="9" depart="1.80" from="left4A4.80.00" to="C1C0.80.00" type="passenger"/>
    <trip id="10" depart="1.90" from="B4A4" to="B0A0.80.00" type="passenger"/>
    <trip id="11" depart="2.38" from="C0C1" to="C2C3.80.00" type="passenger"/>
    <trip id="12" depart="2.45" from="C3D3" to="D0bottom3" type="passenger"/>
    <trip id="13" depart="2.82" from="D1D0.80.00" to="D2E2.80.00" type="passenger"/>
    <trip id="14" depart="3.06" from="D3D4.80.00" to="C4B4" type="passenger"/>
    <trip id="15" depart="3.23" from="B2B1.80.00" to="D4E4" type="passenger"/>
    <trip id="16" depart="3.28" from="C1C0.80.00" to="A1A2" type="passenger"/>
    <trip id="17" depart="3.34" from="left4A4" to="E4D4.80.00" type="passenger"/>
    <trip id="18" depart="3.46" from="B2A2" to="D2E2" type="passenger"/>
    <trip id="19" depart="3.66" from="right3E3" to="A1A0.80.00" type="passenger"/>
    <trip id="20" depart="4.10" from="E4D4.80.00" to="B3A3" type="passenger"/>
    <trip id="21" depart="4.21" from="B4A4.80.00" to="B0C0.80.00" type="passenger"/>
    <trip id="22" depart="4.98" from="B1B2" to="E2E1" type="passenger"/>
    <trip id="23" depart="5.21" from="D3E3.80.00" to="E2D2" type="passenger"/>
    <trip id="24" depart="5.38" from="left0A0" to="E1E0.80.00" type="passenger"/>
    <trip id="25" depart="5.91" from="C1B1.80.00" to="E4E3" type="passenger"/>
    <trip id="26" depart="6.17" from="A1A0" to="A3A2.80.00" type="passenger"/>
    <trip id="27" depart="6.28" from="A3A4.80.00" to="A3A2" type="passenger"/>
    <trip id="28" depart="6.46" from="right2E2.80.00" to="A2A1.80.00" type="passenger"/>
    <trip id="29" depart="7.17" from="B4B3" to="B3C3.80.00" type="passenger"/>
    <trip id="30" depart="7.21" from="D3D2.80.00" to="B2A2" type="passenger"/>
    <trip id="31" depart="7.53" from="B3B4.80.00" to="C4B4" type="passenger"/>
    <trip id="32" depart="8.44" from="D1C1.80.00" to="B4B3" type="passenger"/>
    <trip id="33" depart="8.46" from="B1A1.80.00" to="A1B1.80.00" type="passenger"/>
    <trip id="34" depart="8.81" from="D1C1.80.00" to="B2C2.80.00" type="passenger"/>
    <trip id="35" depart="8.84" from="B2A2.80.00" to="A4A3" type="passenger"/>
    <trip id="36" depart="10.31" from="D1D0" to="D1C1" type="passenger"/>
    <trip id="37" depart="10.40" from="D4C4" to="D2E2" type="passenger"/>
    <trip id="38" depart="10.67" from="D3C3.80.00" to="A3left3" type="passenger"/>
    <trip id="39" depart="10.82" from="E4D4" to="D2D1" type="passenger"/>
    <trip id="40" depart="10.99" from="D3E3.80.00" to="D1D0" type="passenger"/>
    <trip id="41" depart="11.14" from="A0B0" to="A3B3.80.00" type="passenger"/>
    <trip id="42" depart="11.34" from="E3D3.80.00" to="C3D3" type="passenger"/>
    <trip id="43" depart="11.37" from="B1B2" to="A0A1" type="passenger"/>
    <trip id="44" depart="11.76" from="C4C3" to="B4top1" type="passenger"/>
    <trip id="45" depart="12.15" from="A2A3" to="C4B4.80.00" type="passenger"/>
    <trip id="46" depart="13.00" from="B3B2.80.00" to="left4A4.80.00" type="passenger"/>
    <trip id="47" depart="13.12" from="C4C3" to="C4C3.80.00" type="passenger"/>
    <trip id="48" depart="13.59" from="B2B1" to="D1C1" type="passenger"/>
    <trip id="49" depart="13.66" from="B1A1" to="C3D3.80.00" type="passenger"/>
    <trip id="50" depart="14.14" from="A0B0" to="D4D3" type="passenger"/>
    <trip id="51" depart="14.34" from="right0E0" to="E4right4" type="passenger"/>
    <trip id="52" depart="14.50" from="E3E2.80.00" to="C3D3.80.00" type="passenger"/>
    <trip id="53" depart="15.11" from="D2D3" to="D0D1.80.00" type="passenger"/>
    <trip id="54" depart="15.72" from="top1B4.80.00" to="D0C0.80.00" type="passenger"/>
    <trip id="55" depart="15.93" from="D4E4" to="A4A3.80.00" type="passenger"/>
    <trip id="56" depart="15.95" from="A1A0" to="A4B4" type="passenger"/>
    <trip id="57" depart="15.96" from="C1D1.80.00" to="B3B2" type="passenger"/>
    <trip id="58" depart="16.10" from="D4D3" to="E4D4" type="passenger"/>
    <trip id="59" depart="16.26" from="D1D0" to="C4D4.80.00" type="passenger"/>
    <trip id="60" depart="16.34" from="A3A2.80.00" to="A0left0" type="passenger"/>
    <trip id="61" depart="17.02" from="E3E2.80.00" to="right0E0.80.00" type="passenger"/>
    <trip id="62" depart="17.31" from="right4E4.80.00" to="D4E4.80.00" type="passenger"/>
    <trip id="63" depart="17.36" from="bottom0A0" to="A3A2.80.00" type="passenger"/>
    <trip id="64" depart="17.97" from="B3B4.80.00" to="A3B3.80.00" type="passenger"/>
    <trip id="65" depart="17.98" from="C2C3.80.00" to="bottom3D0.80.00" type="passenger"/>
    <trip id="66" depart="18.01" from="B3C3" to="B3B4.80.00" type="passenger"/>
    <trip id="67" depart="18.19" from="A1B1" to="C4C3" type="passenger"/>
    <trip id="68" depart="18.32" from="B3A3.80.00" to="C4C3.80.00" type="passenger"/>
    <trip id="69" depart="19.58" from="B2B3" to="C1C0" type="passenger"/>
    <trip id="70" depart="19.66" from="E3D3.80.00" to="C4B4" type="passenger"/>
    <trip id="71" depart="19.70" from="B1A1.80.00" to="bottom3D0.80.00" type="passenger"/>
    <trip id="72" depart="19.78" from="C1B1.80.00" to="B3C3.80.00" type="passenger"/>
    <trip id="73" depart="20.20" from="B2B1" to="B2C2" type="passenger"/>
    <trip id="74" depart="20.27" from="A0B0" to="right3E3.80.00" type="passenger"/>
    <trip id="75" depart="20.39" from="C3B3.80.00" to="A3left3" type="passenger"/>
    <trip id="76" depart="20.80" from="E4E3.80.00" to="D2C2.80.00" type="passenger"/>
    <trip id="77" depart="20.92" from="B3C3.80.00" to="E0E1" type="passenger"/>
    <trip id="78" depart="21.12" from="B2C2" to="D1C1.80.00" type="passenger"/>
    <trip id="79" depart="21.63" from="B3A3.80.00" to="D2D1" type="passenger"/>
    <trip id="80" depart="22.11" from="B0B1" to="D0E0" type="passenger"/>
    <trip id="81" depart="22.39" from="left3A3.80.00" to="E2E1" type="passenger"/>
    <trip id="82" depart="22.76" from="E4E3.80.00" to="B0B1" type="passenger"/>
    <trip id="83" depart="23.30" from="A1A0.80.00" to="E4E3" type="passenger"/>
    <trip id="84" depart="23.32" from="left3A3.80.00" to="C1C0.80.00" type="passenger"/>
    <trip id="85" depart="23.43" from="D1D0.80.00" to="A1A0.80.00" type="passenger"/>
    <trip id="86" depart="23.49" from="left1A1.80.00" to="E4top4" type="passenger"/>
    <trip id="87" depart="23.57" from="A0B0" to="E3D3.80.00" type="passenger"/>
    <trip id="88" depart="23.72" from="A1A0" to="C2C3.80.00" type="passenger"/>
    <trip id="89" depart="23.88" from="C4B4" to="C1B1.80.00" type="passenger"/>
    <trip id="90" depart="24.26" from="A2A1" to="D3D2.80.00" type="passenger"/>
    <trip id="91" depart="24.64" from="C1B1.80.00" to="A3B3.80.00" type="passenger"/>
    <trip id="92" depart="24.70" from="B3B2.80.00" to="A2A1" type="passenger"/>
    <trip id="93" depart="24.81" from="B4B3" to="B1B0.80.00" type="passenger"/>
    <trip id="94" depart="24.84" from="B3B2" to="C3D3.80.00" type="passenger"/>
    <trip id="95" depart="25.19" from="A2A3" to="D0E0" type="passenger"/>
    <trip id="96" depart="25.98" from="D2D1" to="B0bottom1" type="passenger"/>
    <trip id="97" depart="26.13" from="C0C1" to="A1B1.80.00" type="passenger"/>
    <trip id="98" depart="26.19" from="E4D4.80.00" to="A2B2.80.00" type="passenger"/>
    <trip id="99" depart="27.26" from="A4A3.80.00" to="C3C4" type="passenger"/>
    <trip id="100" depart="27.54" from="A3B3" to="E1D1" type="passenger"/>
    <trip id="101" depart="27.68" from="B0C0" to="A0left0" type="passenger"/>
    <trip id="102" depart="27.84" from="A2A3" to="bottom3D0.80.00" type="passenger"/>
    <trip id="103" depart="27.91" from="C2B2.80.00" to="D4top3" type="passenger"/>
    <trip id="104" depart="28.37" from="C2C3" to="C1C2.80.00" type="passenger"/>
    <trip id="105" depart="28.79" from="bottom4E0" to="D2C2" type="passenger"/>
    <trip id="106" depart="28.90" from="C1D1.80.00" to="top4E4.80.00" type="passenger"/>
    <trip id="107" depart="28.94" from="bottom0A0.80.00" to="B0B1" type="passenger"/>
    <trip id="108" depart="28.97" from="B1A1.80.00" to="A4B4" type="passenger"/>
    <trip id="109" depart="29.22" from="B4B3.80.00" to="A2left2" type="passenger"/>
    <trip id="110" depart="29.53" from="right1E1" to="C4B4.80.00" type="passenger"/>
    <trip id="111" depart="29.60" from="A1B1" to="A4B4.80.00" type="passenger"/>
    <trip id="112" depart="29.62" from="D3E3.80.00" to="C2C1.80.00" type="passenger"/>
    <trip id="113" depart="29.83" from="B4C4" to="A1A2.80.00" type="passenger"/>
    <trip id="114" depart="30.03" from="C3C4" to="A4A3.80.00" type="passenger"/>
    <trip id="115" depart="30.15" from="B3B2" to="C3C4" type="passenger"/>
    <trip id="116" depart="30.17" from="left0A0.80.00" to="E3E2.80.00" type="passenger"/>
    <trip id="117" depart="30.38" from="B1C1.80.00" to="C1C0.80.00" type="passenger"/>
    <trip id="118" depart="30.66" from="C4B4.80.00" to="A3A4.80.00" type="passenger"/>
    <trip id="119" depart="30.71" from="D1C1.80.00" to="A3A2.80.00" type="passenger"/>
    <trip id="120" depart="30.71" from="right0E0" to="left1A1.80.00" type="passenger"/>
    <trip id="121" depart="30.92" from="D2E2" to="C1C0" type="passenger"/>
    <trip id="122" depart="31.03" from="C2C3.80.00" to="C2D2.80.00" type="passenger"/>
    <trip id="123" depart="32.34" from="C0C1.80.00" to="C0B0" type="passenger"/>
    <trip id="124" depart="32.97" from="B3B2.80.00" to="C1B1.80.00" type="passenger"/>
    <trip id="125" depart="33.18" from="B3B2" to="D1E1.80.00" type="passenger"/>
    <trip id="126" depart="33.34" from="C4B4.80.00" to="A4top0" type="passenger"/>
    <trip id="127" depart="33.34" from="left3A3.80.00" to="E3E2" type="passenger"/>
    <trip id="128" depart="33.48" from="C4D4" to="A1A2.80.00" type="passenger"/>
    <trip id="129" depart="33.52" from="right4E4" to="bottom4E0.80.00" type="passenger"/>
    <trip id="130" depart="33.71" from="D1D2" to="left1A1.80.00" type="passenger"/>
    <trip id="131" depart="33.80" from="C2D2.80.00" to="E1D1" type="passenger"/>
    <trip id="132" depart="33.90" from="right4E4" to="C1B1" type="passenger"/>
    <trip id="133" depart="35.29" from="E3E2.80.00" to="C1C2" type="passenger"/>
    <trip id="134" depart="35.44" from="D1D0" to="E2D2" type="passenger"/>
    <trip id="135" depart="35.55" from="C0B0" to="A1left1" type="passenger"/>
    <trip id="136" depart="36.36" from="D2D3.80.00" to="A4B4" type="passenger"/>
    <trip id="137" depart="36.81" from="C0C1" to="C0C1.80.00" type="passenger"/>
    <trip id="138" depart="36.89" from="E4D4.80.00" to="A3B3" type="passenger"/>
    <trip id="139" depart="36.92" from="A1B1.80.00" to="C2C3.80.00" type="passenger"/>
    <trip id="140" depart="37.14" from="D0C0" to="A2B2.80.00" type="passenger"/>
    <trip id="141" depart="37.18" from="E3E4" to="D3D4.80.00" type="passenger"/>
    <trip id="142" depart="37.34" from="D2D1.80.00" to="D2C2" type="passenger"/>
    <trip id="143" depart="37.49" from="left2A2" to="C4D4.80.00" type="passenger"/>
    <trip id="144" depart="37.69" from="B0B1" to="A2B2.80.00" type="passenger"/>
    <trip id="145" depart="38.08" from="D2C2" to="C0D0" type="passenger"/>
    <trip id="146" depart="38.16" from="C3D3" to="B2A2.80.00" type="passenger"/>
    <trip id="147" depart="38.28" from="A3B3" to="A1A0.80.00" type="passenger"/>
    <trip id="148" depart="38.38" from="left2A2" to="B0A0" type="passenger"/>
    <trip id="149" depart="39.16" from="E1E2" to="right3E3.80.00" type="passenger"/>
    <trip id="150" depart="39.32" from="B2B3.80.00" to="B2A2.80.00" type="passenger"/>
    <trip id="151" depart="39.61" from="bottom0A0.80.00" to="E3E4" type="passenger"/>
    <trip id="152" depart="39.98" from="B2A2.80.00" to="E1E0.80.00" type="passenger"/>
    <trip id="153" depart="40.14" from="C3C4" to="D4D3" type="passenger"/>
    <trip id="154" depart="40.21" from="top0A4.80.00" to="E2right2" type="passenger"/>
    <trip id="155" depart="41.03" from="top4E4" to="D1D2.80.00" type="passenger"/>
    <trip id="156" depart="41.14" from="D0D1" to="A2left2" type="passenger"/>
    <trip id="157" depart="41.21" from="B1B0.80.00" to="E4top4" type="passenger"/>
    <trip id="158" depart="41.30" from="top2C4" to="E3D3" type="passenger"/>
    <trip id="159" depart="41.35" from="D3D2.80.00" to="A3B3.80.00" type="passenger"/>
    <trip id="160" depart="41.37" from="B3C3" to="D0E0" type="passenger"/>
    <trip id="161" depart="41.45" from="D2E2" to="E1right1" type="passenger"/>
    <trip id="162" depart="42.02" from="C2B2.80.00" to="C3D3.80.00" type="passenger"/>
    <trip id="163" depart="42.30" from="E0D0.80.00" to="B2A2" type="passenger"/>
    <trip id="164" depart="42.30" from="A2A1.80.00" to="C0C1" type="passenger"/>
    <trip id="165" depart="42.62" from="top0A4" to="B0B1" type="passenger"/>
    <trip id="166" depart="42.84" from="D4E4" to="B4C4" type="passenger"/>
    <trip id="167" depart="43.03" from="bottom4E0.80.00" to="E1E2" type="passenger"/>
    <trip id="168" depart="43.10" from="D2C2" to="A1left1" type="passenger"/>
    <trip id="169" depart="43.70" from="C2C1.80.00" to="B1C1" type="passenger"/>
    <trip id="170" depart="43.77" from="B4C4" to="D1E1.80.00" type="passenger"/>
    <trip id="171" depart="44.49" from="D3D4.80.00" to="top2C4.80.00" type="passenger"/>
    <trip id="172" depart="44.66" from="D2C2.80.00" to="E4D4.80.00" type="passenger"/>
    <trip id="173" depart="44.82" from="A3A4" to="A3A2" type="passenger"/>
    <trip id="174" depart="45.62" from="E3E2.80.00" to="E2E3.80.00" type="passenger"/>
    <trip id="175" depart="45.99" from="D4D3" to="A0B0" type="passenger"/>
    <trip id="176" depart="46.90" from="bottom0A0.80.00" to="A3B3.80.00" type="passenger"/>
    <trip id="177" depart="46.99" from="D1E1.80.00" to="D4top3" type="passenger"/>
    <trip id="178" depart="47.21" from="D0D1.80.00" to="E3D3" type="passenger"/>
    <trip id="179" depart="47.26" from="C1D1.80.00" to="D3D4.80.00" type="passenger"/>
    <trip id="180" depart="47.57" from="left3A3.80.00" to="E0bottom4" type="passenger"/>
    <trip id="181" depart="48.46" from="E1E2" to="D3C3.80.00" type="passenger"/>
    <trip id="182" depart="48.48" from="top4E4.80.00" to="B4C4.80.00" type="passenger"/>
    <trip id="183" depart="49.27" from="C3C4.80.00" to="B2C2" type="passenger"/>
    <trip id="184" depart="49.30" from="B1B2.80.00" to="B4B3.80.00" type="passenger"/>
    <trip id="185" depart="49.38" from="A4B4.80.00" to="B4A4" type="passenger"/>
    <trip id="186" depart="49.93" from="bottom2C0.80.00" to="B0B1.80.00" type="passenger"/>
    <trip id="187" depart="50.42" from="B4B3.80.00" to="E2E3" type="passenger"/>
    <trip id="188" depart="50.69" from="C4D4.80.00" to="C2D2" type="passenger"/>
    <trip id="189" depart="51.10" from="D1D0" to="D0E0.80.00" type="passenger"/>
    <trip id="190" depart="51.14" from="B2A2" to="B0A0.80.00" type="passenger"/>
    <trip id="191" depart="51.36" from="E4E3.80.00" to="D3E3" type="passenger"/>
    <trip id="192" depart="51.66" from="C3C4.80.00" to="E0D0.80.00" type="passenger"/>
    <trip id="193" depart="51.91" from="right0E0" to="right3E3.80.00" type="passenger"/>
    <trip id="194" depart="52.16" from="C1C0.80.00" to="D3D4.80.00" type="passenger"/>
    <trip id="195" depart="53.21" from="A4B4" to="D4C4.80.00" type="passenger"/>
    <trip id="196" depart="53.50" from="right1E1.80.00" to="C4D4.80.00" type="passenger"/>
    <trip id="197" depart="53.81" from="bottom0A0.80.00" to="C1D1.80.00" type="passenger"/>
    <trip id="198" depart="54.50" from="B3B4.80.00" to="C2C1" type="passenger"/>
    <trip id="199" depart="54.82" from="D1C1" to="A0A1.80.00" type="passenger"/>
    <trip id="200" depart="55.18" from="C3C4.80.00" to="bottom2C0.80.00" type="passenger"/>
    <trip id="201" depart="55.42" from="D0C0.80.00" to="E3D3.80.00" type="passenger"/>
    <trip id="202" depart="55.43" from="B0C0.80.00" to="E1D1" type="passenger"/>
    <trip id="203" depart="55.59" from="D3E3.80.00" to="D2D3" type="passenger"/>
    <trip id="204" depart="56.31" from="C0C1.80.00" to="E4E3.80.00" type="passenger"/>
    <trip id="205" depart="56.38" from="left2A2.80.00" to="D3E3.80.00" type="passenger"/>
    <trip id="206" depart="56.40" from="B3B2.80.00" to="E0E1.80.00" type="passenger"/>
    <trip id="207" depart="56.52" from="D3C3" to="A2A3" type="passenger"/>
    <trip id="208" depart="56.66" from="D1D0.80.00" to="B3B2.80.00" type="passenger"/>
    <trip id="209" depart="57.11" from="B2A2" to="C3C2" type="passenger"/>
    <trip id="210" depart="57.20" from="top0A4" to="E3D3.80.00" type="passenger"/>
    <trip id="211" depart="58.72" from="E4D4" to="C1B1.80.00" type="passenger"/>
    <trip id="212" depart="58.90" from="bottom3D0.80.00" to="C3B3" type="passenger"/>
    <trip id="213" depart="59.02" from="top3D4.80.00" to="A3left3" type="passenger"/>
    <trip id="214" depart="59.34" from="D3D2.80.00" to="E1E0.80.00" type="passenger"/>
    <trip id="215" depart="59.50" from="E3E2.80.00" to="bottom2C0.80.00" type="passenger"/>
    <trip id="216" depart="59.87" from="bottom4E0.80.00" to="right1E1.80.00" type="passenger"/>
    <trip id="217" depart="60.18" from="B4A4.80.00" to="bottom3D0.80.00" type="passenger"/>
    <trip id="218" depart="60.55" from="bottom2C0.80.00" to="E0D0.80.00" type="passenger"/>
    <trip id="219" depart="60.94" from="D0D1.80.00" to="B4A4" type="passenger"/>
    <trip id="220" depart="61.10" from="D2C2.80.00" to="D2C2" type="passenger"/>
    <trip id="221" depart="61.32" from="B0A0.80.00" to="top4E4.80.00" type="passenger"/>
    <trip id="222" depart="61.46" from="bottom2C0.80.00" to="D4D3" type="passenger"/>
    <trip id="223" depart="61.50" from="C0D0.80.00" to="B3A3.80.00" type="passenger"/>
    <trip id="224" depart="61.84" from="B0B1" to="C1D1.80.00" type="passenger"/>
    <trip id="225" depart="62.10" from="E2E3.80.00" to="B2B1" type="passenger"/>
    <trip id="226" depart="62.22" from="C2C1.80.00" to="A1B1.80.00" type="passenger"/>
    <trip id="227" depart="62.25" from="B2A2.80.00" to="D1D2.80.00" type="passenger"/>
    <trip id="228" depart="62.58" from="A4A3.80.00" to="D4E4" type="passenger"/>
    <trip id="229" depart="62.99" from="right4E4.80.00" to="A2B2.80.00" type="passenger"/>
    <trip id="230" depart="63.88" from="C4C3.80.00" to="B4B3.80.00" type="passenger"/>
    <trip id="231" depart="63.90" from="D2D3.80.00" to="A1B1.80.00" type="passenger"/>
    <trip id="232" depart="64.91" from="E0E1.80.00" to="D3D2" type="passenger"/>
    <trip id="233" depart="64.98" from="C4D4" to="D3C3" type="passenger"/>
    <trip id="234" depart="65.08" from="B2C2" to="B0bottom1" type="passenger"/>
    <trip id="235" depart="65.53" from="top3D4" to="A2left2" type="passenger"/>
    <trip id="236" depart="65.91" from="D2D1.80.00" to="C2D2.80.00" type="passenger"/>
    <trip id="237" depart="66.43" from="left3A3.80.00" to="E2D2" type="passenger"/>
    <trip id="238" depart="66.53" from="B1A1.80.00" to="E3D3" type="passenger"/>
    <trip id="239" depart="67.76" from="right4E4" to="D2D3" type="passenger"/>
    <trip id="240" depart="67.82" from="D1D0" to="A4left4" type="passenger"/>
    <trip id="241" depart="67.87" from="E0D0" to="left4A4.80.00" type="passenger"/>
    <trip id="242" depart="68.18" from="D2E2" to="B2C2" type="passenger"/>
    <trip id="243" depart="68.51" from="C3C2.80.00" to="D0E0.80.00" type="passenger"/>
    <trip id="244" depart="68.65" from="E1E2.80.00" to="A1A2.80.00" type="passenger"/>
    <trip id="245" depart="68.82" from="D2D1" to="C2C1" type="passenger"/>
    <trip id="246" depart="69.53" from="E2D2" to="C4B4" type="passenger"/>
    <trip id="247" depart="69.72" from="C1C0.80.00" to="E1D1.80.00" type="passenger"/>
    <trip id="248" depart="69.98" from="B4B3.80.00" to="B1B0.80.00" type="passenger"/>
    <trip id="249" depart="70.50" from="D3E3.80.00" to="C1D1" type="passenger"/>
    <trip id="250" depart="70.62" from="D1C1.80.00" to="D4C4.80.00" type="passenger"/>
    <trip id="251" depart="70.79" from="A1B1" to="E3D3" type="passenger"/>
    <trip id="252" depart="70.81" from="B1A1" to="B4B3.80.00" type="passenger"/>
    <trip id="253" depart="70.90" from="right3E3" to="B0C0" type="passenger"/>
    <trip id="254" depart="71.27" from="E1E0.80.00" to="E3E2.80.00" type="passenger"/>
    <trip id="255" depart="71.33" from="C1D1.80.00" to="A2A3" type="passenger"/>
    <trip id="256" depart="71.40" from="B3A3" to="C1C2.80.00" type="passenger"/>
    <trip id="257" depart="71.55" from="A1A2.80.00" to="D2E2.80.00" type="passenger"/>
    <trip id="258" depart="72.11" from="A3A4.80.00" to="B4A4.80.00" type="passenger"/>
    <trip id="259" depart="72.35" from="A1B1.80.00" to="A4B4" type="passenger"/>
    <trip id="260" depart="72.52" from="D4D3" to="B4C4.80.00" type="passenger"/>
    <trip id="261" depart="72.78" from="D1D2.80.00" to="B4C4" type="passenger"/>
    <trip id="262" depart="73.72" from="E3E4" to="A3B3" type="passenger"/>
    <trip id="263" depart="74.24" from="C4C3.80.00" to="C1D1" type="passenger"/>
    <trip id="264" depart="74.30" from="A4A3" to="D1D0.80.00" type="passenger"/>
    <trip id="265" depart="74.34" from="D3E3.80.00" to="E2E3.80.00" type="passenger"/>
    <trip id="266" depart="74.43" from="B2B1.80.00" to="B4C4.80.00" type="passenger"/>
    <trip id="267" depart="74.47" from="A2A1" to="C1C2.80.00" type="passenger"/>
    <trip id="268" depart="74.74" from="A1B1.80.00" to="E1D1" type="passenger"/>
    <trip id="269" depart="75.17" from="right0E0.80.00" to="bottom2C0.80.00" type="passenger"/>
    <trip id="270" depart="75.50" from="C1C2" to="C4C3" type="passenger"/>
    <trip id="271" depart="75.50" from="C0D0.80.00" to="A0B0" type="passenger"/>
    <trip id="272" depart="75.82" from="D0D1.80.00" to="D2C2.80.00" type="passenger"/>
    <trip id="273" depart="75.94" from="B1C1" to="top2C4.80.00" type="passenger"/>
    <trip id="274" depart="76.14" from="A1A0.80.00" to="A4A3.80.00" type="passenger"/>
    <trip id="275" depart="76.14" from="E1E0.80.00" to="B2A2.80.00" type="passenger"/>
    <trip id="276" depart="76.16" from="C4C3" to="B3A3.80.00" type="passenger"/>
    <trip id="277" depart="76.20" from="B2B1" to="A2left2" type="passenger"/>
    <trip id="278" depart="76.22" from="C1B1" to="B1B2" type="passenger"/>
    <trip id="279" depart="77.50" from="A1A0" to="A0A1" type="passenger"/>
    <trip id="280" depart="78.20" from="C1D1.80.00" to="E2E3.80.00" type="passenger"/>
    <trip id="281" depart="78.94" from="E0E1" to="B2B3" type="passenger"/>
    <trip id="282" depart="79.15" from="E2D2" to="C3C4" type="passenger"/>
    <trip id="283" depart="79.55" from="A1A2" to="right3E3.80.00" type="passenger"/>
    <trip id="284" depart="80.09" from="left0A0" to="D1E1.80.00" type="passenger"/>
    <trip id="285" depart="80.70" from="C0C1.80.00" to="E1E0.80.00" type="passenger"/>
    <trip id="286" depart="81.38" from="right2E2" to="B3C3" type="passenger"/>
    <trip id="287" depart="81.86" from="B4C4" to="D1D2.80.00" type="passenger"/>
    <trip id="288" depart="82.29" from="A0A1" to="E4right4" type="passenger"/>
    <trip id="289" depart="82.90" from="right1E1" to="D4C4" type="passenger"/>
    <trip id="290" depart="83.18" from="D1C1" to="B0C0" type="passenger"/>
    <trip id="291" depart="83.34" from="A1A2" to="C4B4" type="passenger"/>
    <trip id="292" depart="83.49" from="B0B1.80.00" to="bottom2C0.80.00" type="passenger"/>
    <trip id="293" depart="83.74" from="right0E0" to="A3B3.80.00" type="passenger"/>
    <trip id="294" depart="83.82" from="C1C2" to="A2B2.80.00" type="passenger"/>
    <trip id="295" depart="84.02" from="E4E3.80.00" to="right4E4.80.00" type="passenger"/>
    <trip id="296" depart="84.34" from="right4E4.80.00" to="B0C0" type="passenger"/>
    <trip id="297" depart="84.36" from="top2C4.80.00" to="C1C2.80.00" type="passenger"/>
    <trip id="298" depart="84.44" from="B1A1.80.00" to="B0C0.80.00" type="passenger"/>
    <trip id="299" depart="84.49" from="D3E3.80.00" to="E2right2" type="passenger"/>
    <trip id="300" depart="84.58" from="bottom0A0" to="D3D4" type="passenger"/>
    <trip id="301" depart="85.75" from="C3C4" to="B4B3" type="passenger"/>
    <trip id="302" depart="85.79" from="bottom0A0.80.00" to="C1C2" type="passenger"/>
    <trip id="303" depart="86.96" from="B4A4.80.00" to="D3E3" type="passenger"/>
    <trip id="304" depart="88.03" from="C1C2" to="right1E1.80.00" type="passenger"/>
    <trip id="305" depart="88.06" from="right4E4" to="B0B1" type="passenger"/>
    <trip id="306" depart="88.09" from="C2B2.80.00" to="C2B2.80.00" type="passenger"/>
    <trip id="307" depart="88.31" from="B3B2.80.00" to="C4B4.80.00" type="passenger"/>
    <trip id="308" depart="88.75" from="E1D1.80.00" to="E3right3" type="passenger"/>
    <trip id="309" depart="89.13" from="D0D1" to="D2E2.80.00" type="passenger"/>
    <trip id="310" depart="89.28" from="D2D3" to="B4A4" type="passenger"/>
    <trip id="311" depart="89.39" from="D4C4.80.00" to="B0A0" type="passenger"/>
    <trip id="312" depart="89.62" from="D2D3.80.00" to="E1E0" type="passenger"/>
    <trip id="313" depart="90.16" from="bottom2C0" to="D4C4.80.00" type="passenger"/>
    <trip id="314" depart="90.20" from="C1C2.80.00" to="C4C3.80.00" type="passenger"/>
    <trip id="315" depart="90.47" from="D0D1.80.00" to="D0D1" type="passenger"/>
    <trip id="316" depart="90.67" from="A0B0" to="B2A2.80.00" type="passenger"/>
    <trip id="317" depart="90.74" from="D2C2.80.00" to="D4C4" type="passenger"/>
    <trip id="318" depart="90.75" from="C4D4" to="B4A4" type="passenger"/>
    <trip id="319" depart="91.14" from="D1C1" to="E1D1.80.00" type="passenger"/>
    <trip id="320" depart="91.22" from="B0A0.80.00" to="top0A4.80.00" type="passenger"/>
    <trip id="321" depart="91.86" from="D4E4" to="E0E1.80.00" type="passenger"/>
    <trip id="322" depart="92.28" from="C1D1.80.00" to="E0right0" type="passenger"/>
    <trip id="323" depart="92.42" from="D1D2.80.00" to="C4B4" type="passenger"/>
    <trip id="324" depart="92.64" from="B2A2" to="A1A0.80.00" type="passenger"/>
    <trip id="325" depart="92.80" from="B4A4" to="right1E1.80.00" type="passenger"/>
    <trip id="326" depart="92.94" from="D3D2" to="C1D1.80.00" type="passenger"/>
    <trip id="327" depart="93.66" from="left3A3" to="D3D4" type="passenger"/>
    <trip id="328" depart="93.90" from="B1B2.80.00" to="B2B1.80.00" type="passenger"/>
    <trip id="329" depart="94.02" from="A2B2.80.00" to="B0B1.80.00" type="passenger"/>
    <trip id="330" depart="94.38" from="D3C3.80.00" to="top2C4.80.00" type="passenger"/>
    <trip id="331" depart="94.82" from="A3B3" to="D2D1" type="passenger"/>
    <trip id="332" depart="94.97" from="bottom1B0" to="B1B2.80.00" type="passenger"/>
    <trip id="333" depart="95.45" from="D1D0.80.00" to="B1A1.80.00" type="passenger"/>
    <trip id="334" depart="95.45" from="D2C2.80.00" to="A4top0" type="passenger"/>
    <trip id="335" depart="95.52" from="bottom3D0" to="B4A4" type="passenger"/>
    <trip id="336" depart="96.37" from="D3C3.80.00" to="B1A1.80.00" type="passenger"/>
    <trip id="337" depart="96.59" from="E1E2.80.00" to="E0E1.80.00" type="passenger"/>
    <trip id="338" depart="97.09" from="B0C0.80.00" to="E3E4.80.00" type="passenger"/>
    <trip id="339" depart="97.33" from="B3A3" to="A4B4" type="passenger"/>
    <trip id="340" depart="98.02" from="top1B4.80.00" to="D2D1.80.00" type="passenger"/>
    <trip id="341" depart="98.24" from="E0E1.80.00" to="A4A3.80.00" type="passenger"/>
    <trip id="342" depart="98.43" from="left4A4" to="C1D1" type="passenger"/>
    <trip id="343" depart="98.66" from="C4C3" to="C2D2.80.00" type="passenger"/>
    <trip id="344" depart="98.85" from="bottom3D0.80.00" to="A1A2.80.00" type="passenger"/>
    <trip id="345" depart="99.08" from="B4C4.80.00" to="A3A2.80.00" type="passenger"/>
    <trip id="346" depart="99.38" from="top2C4" to="A4left4" type="passenger"/>
    <trip id="347" depart="99.90" from="E2E1.80.00" to="E3E4" type="passenger"/>
    <trip id="348" depart="99.90" from="C0C1" to="A3B3" type="passenger"/>
    <trip id="349" depart="100.18" from="B0B1.80.00" to="A4B4" type="passenger"/>
    <trip id="350" depart="100.34" from="E1E2" to="D0D1.80.00" type="passenger"/>
    <trip id="351" depart="100.48" from="E0E1.80.00" to="A2A3.80.00" type="passenger"/>
    <trip id="352" depart="100.50" from="B1B0" to="D2E2.80.00" type="passenger"/>