<?xml version="1.0" encoding="UTF-8"?>

<!-- generated on 2023-04-26 16:56:55.449643 by randomTrips.py UNKNOWN
<configuration>
    <begin value="0"/>
    <end value="900"/>
    <insertion-rate value="8000.0"/>
    <net-file value="/home/franky3er/Documents/code/HieraGLight/scenarios/grid/1x1-500m/train/52-scenario/network.net.xml"/>
    <random value="True"/>
    <random-depart value="True"/>
    <route-file value="/home/franky3er/Documents/code/HieraGLight/scenarios/grid/1x1-500m/train/52-scenario/routes.rou.xml"/>
    <seed value="52"/>
    <output-trip-file value="/home/franky3er/Documents/code/HieraGLight/scenarios/grid/1x1-500m/train/52-scenario/trips.trips.xml"/>
    <vehicle-class value="passenger"/>
</configuration>
-->

<!-- generated on 2023-04-26 16:56:55 by Eclipse SUMO duarouter Version 1.16.0
<configuration xmlns:xsi="http://www.w3.org/2001/XMLSchema-instance" xsi:noNamespaceSchemaLocation="http://sumo.dlr.de/xsd/duarouterConfiguration.xsd">

    <input>
        <net-file value="/home/franky3er/Documents/code/HieraGLight/scenarios/grid/1x1-500m/train/52-scenario/network.net.xml"/>
        <route-files value="/home/franky3er/Documents/code/HieraGLight/scenarios/grid/1x1-500m/train/52-scenario/trips.trips.xml"/>
    </input>

    <output>
        <output-file value="/home/franky3er/Documents/code/HieraGLight/scenarios/grid/1x1-500m/train/52-scenario/routes.rou.xml"/>
        <alternatives-output value="NUL"/>
    </output>

    <time>
        <begin value="0"/>
        <end value="900"/>
    </time>

    <report>
        <no-warnings value="true"/>
        <ignore-errors value="true"/>
        <no-step-log value="true"/>
    </report>

</configuration>
-->

<routes xmlns:xsi="http://www.w3.org/2001/XMLSchema-instance" xsi:noNamespaceSchemaLocation="http://sumo.dlr.de/xsd/routes_file.xsd">
    <vType id="passenger" vClass="passenger"/>
    <vehicle id="0" type="passenger" depart="0.10">
        <route edges="top0A0.250.00 A0right0"/>
    </vehicle>
    <vehicle id="1" type="passenger" depart="0.15">
        <route edges="bottom0A0 bottom0A0.250.00 A0left0"/>
    </vehicle>
    <vehicle id="4" type="passenger" depart="1.20">
        <route edges="top0A0 top0A0.250.00 A0right0"/>
    </vehicle>
    <vehicle id="7" type="passenger" depart="3.45">
        <route edges="right0A0.250.00 A0bottom0"/>
    </vehicle>
    <vehicle id="9" type="passenger" depart="3.65">
        <route edges="bottom0A0.250.00"/>
    </vehicle>
    <vehicle id="10" type="passenger" depart="4.60">
        <route edges="top0A0.250.00 A0right0"/>
    </vehicle>
    <vehicle id="11" type="passenger" depart="4.75">
        <route edges="bottom0A0 bottom0A0.250.00 A0left0"/>
    </vehicle>
    <vehicle id="12" type="passenger" depart="5.05">
        <route edges="bottom0A0.250.00 A0right0"/>
    </vehicle>
    <vehicle id="13" type="passenger" depart="5.15">
        <route edges="right0A0 right0A0.250.00 A0left0"/>
    </vehicle>
    <vehicle id="14" type="passenger" depart="5.90">
        <route edges="left0A0 left0A0.250.00"/>
    </vehicle>
    <vehicle id="17" type="passenger" depart="6.10">
        <route edges="right0A0.250.00 A0top0"/>
    </vehicle>
    <vehicle id="18" type="passenger" depart="6.50">
        <route edges="right0A0.250.00"/>
    </vehicle>
    <vehicle id="20" type="passenger" depart="6.95">
        <route edges="right0A0.250.00"/>
    </vehicle>
    <vehicle id="21" type="passenger" depart="7.85">
        <route edges="left0A0 left0A0.250.00"/>
    </vehicle>
    <vehicle id="23" type="passenger" depart="9.20">
        <route edges="right0A0 right0A0.250.00 A0top0"/>
    </vehicle>
    <vehicle id="24" type="passenger" depart="9.30">
        <route edges="top0A0 top0A0.250.00"/>
    </vehicle>
    <vehicle id="27" type="passenger" depart="11.25">
        <route edges="right0A0 right0A0.250.00 A0top0"/>
    </vehicle>
    <vehicle id="30" type="passenger" depart="12.25">
        <route edges="left0A0 left0A0.250.00 A0top0"/>
    </vehicle>
    <vehicle id="31" type="passenger" depart="12.65">
        <route edges="left0A0 left0A0.250.00 A0top0"/>
    </vehicle>
    <vehicle id="32" type="passenger" depart="13.05">
        <route edges="right0A0.250.00 A0top0"/>
    </vehicle>
    <vehicle id="33" type="passenger" depart="13.20">
        <route edges="left0A0.250.00 A0bottom0"/>
    </vehicle>
    <vehicle id="34" type="passenger" depart="13.30">
        <route edges="bottom0A0.250.00 A0top0"/>
    </vehicle>
    <vehicle id="35" type="passenger" depart="13.30">
        <route edges="bottom0A0.250.00 A0left0"/>
    </vehicle>
    <vehicle id="36" type="passenger" depart="14.30">
        <route edges="bottom0A0 bottom0A0.250.00"/>
    </vehicle>
    <vehicle id="37" type="passenger" depart="14.35">
        <route edges="right0A0.250.00 A0bottom0"/>
    </vehicle>
    <vehicle id="38" type="passenger" depart="14.45">
        <route edges="top0A0 top0A0.250.00 A0right0"/>
    </vehicle>
    <vehicle id="39" type="passenger" depart="14.50">
        <route edges="left0A0.250.00 A0right0"/>
    </vehicle>
    <vehicle id="41" type="passenger" depart="15.10">
        <route edges="left0A0.250.00 A0top0"/>
    </vehicle>
    <vehicle id="44" type="passenger" depart="15.55">
        <route edges="left0A0 left0A0.250.00"/>
    </vehicle>
    <vehicle id="45" type="passenger" depart="16.35">
        <route edges="right0A0 right0A0.250.00 A0bottom0"/>
    </vehicle>
    <vehicle id="48" type="passenger" depart="18.45">
        <route edges="top0A0.250.00 A0bottom0"/>
    </vehicle>
    <vehicle id="49" type="passenger" depart="19.05">
        <route edges="top0A0.250.00 A0left0"/>
    </vehicle>
    <vehicle id="52" type="passenger" depart="20.95">
        <route edges="right0A0 right0A0.250.00 A0top0"/>
    </vehicle>
    <vehicle id="53" type="passenger" depart="21.00">
        <route edges="bottom0A0.250.00 A0top0"/>
    </vehicle>
    <vehicle id="54" type="passenger" depart="21.40">
        <route edges="top0A0 top0A0.250.00 A0left0"/>
    </vehicle>
    <vehicle id="55" type="passenger" depart="21.80">
        <route edges="left0A0 left0A0.250.00 A0top0"/>
    </vehicle>
    <vehicle id="56" type="passenger" depart="21.85">
        <route edges="top0A0.250.00 A0right0"/>
    </vehicle>
    <vehicle id="58" type="passenger" depart="22.70">
        <route edges="left0A0.250.00 A0right0"/>
    </vehicle>
    <vehicle id="59" type="passenger" depart="23.40">
        <route edges="top0A0.250.00 A0bottom0"/>
    </vehicle>
    <vehicle id="66" type="passenger" depart="26.45">
        <route edges="bottom0A0 bottom0A0.250.00 A0left0"/>
    </vehicle>
    <vehicle id="68" type="passenger" depart="28.75">
        <route edges="right0A0 right0A0.250.00"/>
    </vehicle>
    <vehicle id="69" type="passenger" depart="28.85">
        <route edges="top0A0 top0A0.250.00 A0left0"/>
    </vehicle>
    <vehicle id="79" type="passenger" depart="34.25">
        <route edges="top0A0 top0A0.250.00 A0bottom0"/>
    </vehicle>
    <vehicle id="81" type="passenger" depart="34.55">
        <route edges="right0A0.250.00 A0left0"/>
    </vehicle>
    <vehicle id="86" type="passenger" depart="38.00">
        <route edges="right0A0 right0A0.250.00 A0top0"/>
    </vehicle>
    <vehicle id="88" type="passenger" depart="38.25">
        <route edges="bottom0A0.250.00 A0right0"/>
    </vehicle>
    <vehicle id="90" type="passenger" depart="38.50">
        <route edges="left0A0.250.00 A0top0"/>
    </vehicle>
    <vehicle id="91" type="passenger" depart="40.10">
        <route edges="left0A0 left0A0.250.00 A0right0"/>
    </vehicle>
    <vehicle id="92" type="passenger" depart="40.55">
        <route edges="bottom0A0 bottom0A0.250.00 A0top0"/>
    </vehicle>
    <vehicle id="95" type="passenger" depart="41.00">
        <route edges="top0A0 top0A0.250.00"/>
    </vehicle>
    <vehicle id="96" type="passenger" depart="41.85">
        <route edges="bottom0A0 bottom0A0.250.00 A0top0"/>
    </vehicle>
    <vehicle id="98" type="passenger" depart="42.40">
        <route edges="left0A0.250.00 A0top0"/>
    </vehicle>
    <vehicle id="100" type="passenger" depart="44.25">
        <route edges="left0A0.250.00 A0right0"/>
    </vehicle>
    <vehicle id="101" type="passenger" depart="44.55">
        <route edges="left0A0.250.00 A0bottom0"/>
    </vehicle>
    <vehicle id="102" type="passenger" depart="45.00">
        <route edges="bottom0A0 bottom0A0.250.00"/>
    </vehicle>
    <vehicle id="103" type="passenger" depart="46.55">
        <route edges="top0A0.250.00 A0left0"/>
    </vehicle>
    <vehicle id="104" type="passenger" depart="46.65">
        <route edges="right0A0 right0A0.250.00 A0top0"/>
    </vehicle>
    <vehicle id="106" type="passenger" depart="47.55">
        <route edges="bottom0A0 bottom0A0.250.00 A0top0"/>
    </vehicle>
    <vehicle id="109" type="passenger" depart="48.45">
        <route edges="top0A0 top0A0.250.00 A0left0"/>
    </vehicle>
    <vehicle id="112" type="passenger" depart="51.05">
        <route edges="right0A0.250.00"/>
    </vehicle>
    <vehicle id="113" type="passenger" depart="51.15">
        <route edges="left0A0.250.00 A0top0"/>
    </vehicle>
    <vehicle id="120" type="passenger" depart="53.95">
        <route edges="top0A0.250.00 A0bottom0"/>
    </vehicle>
    <vehicle id="123" type="passenger" depart="56.35">
        <route edges="right0A0 right0A0.250.00 A0top0"/>
    </vehicle>
    <vehicle id="125" type="passenger" depart="56.90">
        <route edges="right0A0.250.00 A0top0"/>
    </vehicle>
    <vehicle id="127" type="passenger" depart="57.05">
        <route edges="right0A0 right0A0.250.00"/>
    </vehicle>
    <vehicle id="129" type="passenger" depart="58.60">
        <route edges="left0A0.250.00 A0bottom0"/>
    </vehicle>
    <vehicle id="130" type="passenger" depart="60.80">
        <route edges="bottom0A0.250.00 A0right0"/>
    </vehicle>
    <vehicle id="132" type="passenger" depart="62.45">
        <route edges="left0A0 left0A0.250.00"/>
    </vehicle>
    <vehicle id="134" type="passenger" depart="62.75">
        <route edges="left0A0 left0A0.250.00 A0right0"/>
    </vehicle>
    <vehicle id="135" type="passenger" depart="63.40">
        <route edges="top0A0.250.00 A0right0"/>
    </vehicle>
    <vehicle id="137" type="passenger" depart="64.25">
        <route edges="right0A0.250.00 A0left0"/>
    </vehicle>
    <vehicle id="138" type="passenger" depart="64.25">
        <route edges="bottom0A0 bottom0A0.250.00 A0top0"/>
    </vehicle>
    <vehicle id="139" type="passenger" depart="65.60">
        <route edges="top0A0 top0A0.250.00 A0left0"/>
    </vehicle>
    <vehicle id="141" type="passenger" depart="67.40">
        <route edges="bottom0A0 bottom0A0.250.00 A0right0"/>
    </vehicle>
    <vehicle id="147" type="passenger" depart="70.70">
        <route edges="left0A0 left0A0.250.00"/>
    </vehicle>
    <vehicle id="148" type="passenger" depart="70.85">
        <route edges="left0A0.250.00 A0bottom0"/>
    </vehicle>
    <vehicle id="150" type="passenger" depart="71.30">
        <route edges="left0A0.250.00 A0top0"/>
    </vehicle>
    <vehicle id="153" type="passenger" depart="71.85">
        <route edges="left0A0 left0A0.250.00"/>
    </vehicle>
    <vehicle id="155" type="passenger" depart="72.20">
        <route edges="bottom0A0.250.00 A0right0"/>
    </vehicle>
    <vehicle id="157" type="passenger" depart="72.40">
        <route edges="bottom0A0.250.00"/>
    </vehicle>
    <vehicle id="161" type="passenger" depart="74.45">
        <route edges="left0A0 left0A0.250.00 A0bottom0"/>
    </vehicle>
    <vehicle id="163" type="passenger" depart="75.30">
        <route edges="right0A0 right0A0.250.00 A0top0"/>
    </vehicle>
    <vehicle id="167" type="passenger" depart="76.60">
        <route edges="bottom0A0.250.00 A0left0"/>
    </vehicle>
    <vehicle id="168" type="passenger" depart="76.95">
        <route edges="bottom0A0 bottom0A0.250.00"/>
    </vehicle>
    <vehicle id="169" type="passenger" depart="77.10">
        <route edges="top0A0.250.00 A0left0"/>
    </vehicle>
    <vehicle id="172" type="passenger" depart="79.05">
        <route edges="bottom0A0.250.00"/>
    </vehicle>
    <vehicle id="174" type="passenger" depart="79.60">
        <route edges="bottom0A0.250.00 A0top0"/>
    </vehicle>
    <vehicle id="175" type="passenger" depart="79.65">
        <route edges="right0A0.250.00 A0bottom0"/>
    </vehicle>
    <vehicle id="177" type="passenger" depart="81.15">
        <route edges="left0A0 left0A0.250.00"/>
    </vehicle>
    <vehicle id="178" type="passenger" depart="81.65">
        <route edges="bottom0A0.250.00 A0right0"/>
    </vehicle>
    <vehicle id="182" type="passenger" depart="82.60">
        <route edges="left0A0 left0A0.250.00 A0right0"/>
    </vehicle>
    <vehicle id="183" type="passenger" depart="82.85">
        <route edges="top0A0 top0A0.250.00 A0bottom0"/>
    </vehicle>
    <vehicle id="186" type="passenger" depart="87.45">
        <route edges="left0A0 left0A0.250.00"/>
    </vehicle>
    <vehicle id="188" type="passenger" depart="89.10">
        <route edges="top0A0 top0A0.250.00 A0bottom0"/>
    </vehicle>
    <vehicle id="191" type="passenger" depart="89.60">
        <route edges="right0A0 right0A0.250.00 A0left0"/>
    </vehicle>
    <vehicle id="194" type="passenger" depart="91.50">
        <route edges="right0A0 right0A0.250.00 A0bottom0"/>
    </vehicle>
    <vehicle id="195" type="passenger" depart="92.90">
        <route edges="top0A0 top0A0.250.00 A0bottom0"/>
    </vehicle>
    <vehicle id="197" type="passenger" depart="94.15">
        <route edges="left0A0.250.00 A0top0"/>
    </vehicle>
    <vehicle id="201" type="passenger" depart="97.80">
        <route edges="left0A0 left0A0.250.00 A0bottom0"/>
    </vehicle>
    <vehicle id="203" type="passenger" depart="98.65">
        <route edges="bottom0A0.250.00"/>
    </vehicle>
    <vehicle id="204" type="passenger" depart="98.90">
        <route edges="left0A0 left0A0.250.00"/>
    </vehicle>
    <vehicle id="208" type="passenger" depart="99.55">
        <route edges="top0A0 top0A0.250.00"/>
    </vehicle>
    <vehicle id="210" type="passenger" depart="99.85">
        <route edges="right0A0 right0A0.250.00 A0bottom0"/>
    </vehicle>
    <vehicle id="217" type="passenger" depart="102.20">
        <route edges="left0A0 left0A0.250.00 A0top0"/>
    </vehicle>
    <vehicle id="219" type="passenger" depart="102.95">
        <route edges="top0A0 top0A0.250.00 A0bottom0"/>
    </vehicle>
    <vehicle id="221" type="passenger" depart="103.85">
        <route edges="bottom0A0 bottom0A0.250.00 A0right0"/>
    </vehicle>
    <vehicle id="222" type="passenger" depart="103.85">
        <route edges="top0A0 top0A0.250.00"/>
    </vehicle>
    <vehicle id="224" type="passenger" depart="104.70">
        <route edges="bottom0A0 bottom0A0.250.00 A0left0"/>
    </vehicle>
    <vehicle id="225" type="passenger" depart="105.00">
        <route edges="left0A0 left0A0.250.00 A0bottom0"/>
    </vehicle>
    <vehicle id="228" type="passenger" depart="107.45">
        <route edges="top0A0.250.00 A0bottom0"/>
    </vehicle>
    <vehicle id="229" type="passenger" depart="107.55">
        <route edges="right0A0.250.00 A0left0"/>
    </vehicle>
    <vehicle id="231" type="passenger" depart="108.05">
        <route edges="left0A0 left0A0.250.00 A0bottom0"/>
    </vehicle>
    <vehicle id="235" type="passenger" depart="109.80">
        <route edges="right0A0.250.00 A0top0"/>
    </vehicle>
    <vehicle id="236" type="passenger" depart="109.90">
        <route edges="bottom0A0.250.00 A0top0"/>
    </vehicle>
    <vehicle id="237" type="passenger" depart="110.10">
        <route edges="left0A0.250.00 A0top0"/>
    </vehicle>
    <vehicle id="241" type="passenger" depart="111.90">
        <route edges="right0A0 right0A0.250.00 A0top0"/>
    </vehicle>
    <vehicle id="243" type="passenger" depart="112.85">
        <route edges="right0A0.250.00 A0bottom0"/>
    </vehicle>
    <vehicle id="246" type="passenger" depart="113.35">
        <route edges="top0A0 top0A0.250.00 A0left0"/>
    </vehicle>
    <vehicle id="247" type="passenger" depart="113.90">
        <route edges="top0A0.250.00 A0left0"/>
    </vehicle>
    <vehicle id="249" type="passenger" depart="114.45">
        <route edges="bottom0A0.250.00 A0top0"/>
    </vehicle>
    <vehicle id="251" type="passenger" depart="114.95">
        <route edges="bottom0A0.250.00 A0top0"/>
    </vehicle>
    <vehicle id="252" type="passenger" depart="115.15">
        <route edges="bottom0A0.250.00 A0left0"/>
    </vehicle>
    <vehicle id="254" type="passenger" depart="116.15">
        <route edges="bottom0A0 bottom0A0.250.00"/>
    </vehicle>
    <vehicle id="255" type="passenger" depart="116.80">
        <route edges="right0A0.250.00 A0top0"/>
    </vehicle>
    <vehicle id="257" type="passenger" depart="117.60">
        <route edges="top0A0 top0A0.250.00 A0left0"/>
    </vehicle>
    <vehicle id="258" type="passenger" depart="117.70">
        <route edges="top0A0.250.00 A0right0"/>
    </vehicle>
    <vehicle id="259" type="passenger" depart="117.75">
        <route edges="right0A0.250.00 A0bottom0"/>
    </vehicle>
    <vehicle id="260" type="passenger" depart="117.85">
        <route edges="bottom0A0.250.00"/>
    </vehicle>
    <vehicle id="261" type="passenger" depart="117.85">
        <route edges="right0A0 right0A0.250.00 A0top0"/>
    </vehicle>
    <vehicle id="262" type="passenger" depart="118.45">
        <route edges="top0A0.250.00 A0left0"/>
    </vehicle>
    <vehicle id="263" type="passenger" depart="118.55">
        <route edges="left0A0 left0A0.250.00"/>
    </vehicle>
    <vehicle id="267" type="passenger" depart="120.45">
        <route edges="bottom0A0 bottom0A0.250.00 A0left0"/>
    </vehicle>
    <vehicle id="270" type="passenger" depart="122.80">
        <route edges="top0A0 top0A0.250.00"/>
    </vehicle>
    <vehicle id="271" type="passenger" depart="123.50">
        <route edges="left0A0 left0A0.250.00"/>
    </vehicle>
    <vehicle id="273" type="passenger" depart="124.75">
        <route edges="top0A0.250.00"/>
    </vehicle>
    <vehicle id="275" type="passenger" depart="125.20">
        <route edges="right0A0 right0A0.250.00 A0top0"/>
    </vehicle>
    <vehicle id="276" type="passenger" depart="125.25">
        <route edges="bottom0A0.250.00"/>
    </vehicle>
    <vehicle id="279" type="passenger" depart="126.40">
        <route edges="right0A0 right0A0.250.00 A0bottom0"/>
    </vehicle>
    <vehicle id="280" type="passenger" depart="126.70">
        <route edges="right0A0 right0A0.250.00 A0top0"/>
    </vehicle>
    <vehicle id="281" type="passenger" depart="127.20">
        <route edges="top0A0 top0A0.250.00 A0left0"/>
    </vehicle>
    <vehicle id="282" type="passenger" depart="127.25">
        <route edges="left0A0.250.00 A0bottom0"/>
    </vehicle>
    <vehicle id="286" type="passenger" depart="129.50">
        <route edges="bottom0A0 bottom0A0.250.00 A0left0"/>
    </vehicle>
    <vehicle id="287" type="passenger" depart="129.55">
        <route edges="bottom0A0.250.00"/>
    </vehicle>
    <vehicle id="291" type="passenger" depart="130.90">
        <route edges="top0A0 top0A0.250.00 A0right0"/>
    </vehicle>
    <vehicle id="294" type="passenger" depart="131.90">
        <route edges="right0A0 right0A0.250.00 A0bottom0"/>
    </vehicle>
    <vehicle id="295" type="passenger" depart="132.90">
        <route edges="bottom0A0.250.00 A0top0"/>
    </vehicle>
    <vehicle id="297" type="passenger" depart="133.10">
        <route edges="right0A0 right0A0.250.00 A0top0"/>
    </vehicle>
    <vehicle id="298" type="passenger" depart="133.15">
        <route edges="bottom0A0.250.00"/>
    </vehicle>
    <vehicle id="304" type="passenger" depart="136.05">
        <route edges="bottom0A0.250.00 A0left0"/>
    </vehicle>
    <vehicle id="305" type="passenger" depart="136.75">
        <route edges="right0A0.250.00 A0bottom0"/>
    </vehicle>
    <vehicle id="306" type="passenger" depart="136.85">
        <route edges="right0A0 right0A0.250.00 A0bottom0"/>
    </vehicle>
    <vehicle id="308" type="passenger" depart="137.40">
        <route edges="right0A0 right0A0.250.00 A0bottom0"/>
    </vehicle>
    <vehicle id="310" type="passenger" depart="137.50">
        <route edges="bottom0A0 bottom0A0.250.00 A0right0"/>
    </vehicle>
    <vehicle id="311" type="passenger" depart="138.10">
        <route edges="right0A0 right0A0.250.00 A0top0"/>
    </vehicle>
    <vehicle id="312" type="passenger" depart="138.60">
        <route edges="bottom0A0 bottom0A0.250.00"/>
    </vehicle>
    <vehicle id="314" type="passenger" depart="139.35">
        <route edges="right0A0 right0A0.250.00 A0bottom0"/>
    </vehicle>
    <vehicle id="315" type="passenger" depart="139.65">
        <route edges="right0A0 right0A0.250.00"/>
    </vehicle>
    <vehicle id="316" type="passenger" depart="140.25">
        <route edges="left0A0.250.00 A0bottom0"/>
    </vehicle>
    <vehicle id="318" type="passenger" depart="140.55">
        <route edges="top0A0.250.00 A0bottom0"/>
    </vehicle>
    <vehicle id="319" type="passenger" depart="140.85">
        <route edges="top0A0.250.00 A0bottom0"/>
    </vehicle>
    <vehicle id="321" type="passenger" depart="142.20">
        <route edges="top0A0 top0A0.250.00 A0bottom0"/>
    </vehicle>
    <vehicle id="322" type="passenger" depart="142.35">
        <route edges="top0A0 top0A0.250.00 A0right0"/>
    </vehicle>
    <vehicle id="324" type="passenger" depart="142.95">
        <route edges="right0A0 right0A0.250.00 A0left0"/>
    </vehicle>
    <vehicle id="325" type="passenger" depart="143.05">
        <route edges="right0A0 right0A0.250.00 A0bottom0"/>
    </vehicle>
    <vehicle id="326" type="passenger" depart="143.85">
        <route edges="top0A0.250.00 A0right0"/>
    </vehicle>
    <vehicle id="329" type="passenger" depart="145.60">
        <route edges="right0A0 right0A0.250.00 A0left0"/>
    </vehicle>
    <vehicle id="333" type="passenger" depart="146.85">
        <route edges="left0A0.250.00 A0right0"/>
    </vehicle>
    <vehicle id="335" type="passenger" depart="147.90">
        <route edges="top0A0 top0A0.250.00 A0bottom0"/>
    </vehicle>
    <vehicle id="337" type="passenger" depart="150.55">
        <route edges="right0A0.250.00 A0bottom0"/>
    </vehicle>
    <vehicle id="338" type="passenger" depart="150.75">
        <route edges="right0A0 right0A0.250.00"/>
    </vehicle>
    <vehicle id="340" type="passenger" depart="151.70">
        <route edges="left0A0.250.00 A0top0"/>
    </vehicle>
    <vehicle id="345" type="passenger" depart="153.40">
        <route edges="top0A0 top0A0.250.00"/>
    </vehicle>
    <vehicle id="346" type="passenger" depart="153.45">
        <route edges="top0A0.250.00"/>
    </vehicle>
    <vehicle id="348" type="passenger" depart="154.60">
        <route edges="bottom0A0.250.00 A0right0"/>
    </vehicle>
    <vehicle id="353" type="passenger" depart="157.20">
        <route edges="bottom0A0 bottom0A0.250.00 A0right0"/>
    </vehicle>
    <vehicle id="355" type="passenger" depart="157.50">
        <route edges="right0A0 right0A0.250.00 A0top0"/>
    </vehicle>
    <vehicle id="360" type="passenger" depart="159.00">
        <route edges="left0A0 left0A0.250.00"/>
    </vehicle>
    <vehicle id="362" type="passenger" depart="159.35">
        <route edges="left0A0.250.00 A0right0"/>
    </vehicle>
    <vehicle id="363" type="passenger" depart="160.95">
        <route edges="right0A0.250.00 A0left0"/>
    </vehicle>
    <vehicle id="364" type="passenger" depart="162.30">
        <route edges="left0A0.250.00 A0top0"/>
    </vehicle>
    <vehicle id="369" type="passenger" depart="164.40">
        <route edges="left0A0 left0A0.250.00 A0top0"/>
    </vehicle>
    <vehicle id="372" type="passenger" depart="165.70">
        <route edges="bottom0A0.250.00 A0right0"/>
    </vehicle>
    <vehicle id="373" type="passenger" depart="165.90">
        <route edges="left0A0 left0A0.250.00 A0bottom0"/>
    </vehicle>
    <vehicle id="375" type="passenger" depart="166.50">
        <route edges="top0A0 top0A0.250.00 A0bottom0"/>
    </vehicle>
    <vehicle id="376" type="passenger" depart="166.90">
        <route edges="top0A0 top0A0.250.00 A0right0"/>
    </vehicle>
    <vehicle id="379" type="passenger" depart="169.25">
        <route edges="right0A0 right0A0.250.00 A0left0"/>
    </vehicle>
    <vehicle id="382" type="passenger" depart="170.10">
        <route edges="top0A0 top0A0.250.00 A0bottom0"/>
    </vehicle>
    <vehicle id="384" type="passenger" depart="171.45">
        <route edges="left0A0.250.00 A0bottom0"/>
    </vehicle>
    <vehicle id="385" type="passenger" depart="171.60">
        <route edges="top0A0.250.00 A0right0"/>
    </vehicle>
    <vehicle id="390" type="passenger" depart="172.10">
        <route edges="bottom0A0 bottom0A0.250.00"/>
    </vehicle>
    <vehicle id="391" type="passenger" depart="172.75">
        <route edges="right0A0 right0A0.250.00 A0bottom0"/>
    </vehicle>
    <vehicle id="392" type="passenger" depart="172.85">
        <route edges="top0A0.250.00 A0left0"/>
    </vehicle>
    <vehicle id="394" type="passenger" depart="173.30">
        <route edges="top0A0 top0A0.250.00 A0right0"/>
    </vehicle>
    <vehicle id="395" type="passenger" depart="173.40">
        <route edges="bottom0A0.250.00 A0right0"/>
    </vehicle>
    <vehicle id="396" type="passenger" depart="173.45">
        <route edges="right0A0 right0A0.250.00"/>
    </vehicle>
    <vehicle id="397" type="passenger" depart="174.30">
        <route edges="top0A0.250.00"/>
    </vehicle>
    <vehicle id="399" type="passenger" depart="175.10">
        <route edges="right0A0.250.00 A0bottom0"/>
    </vehicle>
    <vehicle id="401" type="passenger" depart="177.40">
        <route edges="bottom0A0 bottom0A0.250.00 A0top0"/>
    </vehicle>
    <vehicle id="407" type="passenger" depart="180.30">
        <route edges="right0A0 right0A0.250.00"/>
    </vehicle>
    <vehicle id="408" type="passenger" depart="180.55">
        <route edges="top0A0 top0A0.250.00 A0right0"/>
    </vehicle>
    <vehicle id="411" type="passenger" depart="182.85">
        <route edges="left0A0.250.00 A0bottom0"/>
    </vehicle>
    <vehicle id="412" type="passenger" depart="183.20">
        <route edges="left0A0 left0A0.250.00 A0bottom0"/>
    </vehicle>
    <vehicle id="414" type="passenger" depart="184.10">
        <route edges="top0A0.250.00"/>
    </vehicle>
    <vehicle id="415" type="passenger" depart="184.45">
        <route edges="left0A0 left0A0.250.00 A0right0"/>
    </vehicle>
    <vehicle id="416" type="passenger" depart="184.90">
        <route edges="bottom0A0 bottom0A0.250.00 A0left0"/>
    </vehicle>
    <vehicle id="418" type="passenger" depart="185.90">
        <route edges="right0A0 right0A0.250.00 A0left0"/>
    </vehicle>
    <vehicle id="423" type="passenger" depart="187.65">
        <route edges="right0A0 right0A0.250.00 A0bottom0"/>
    </vehicle>
    <vehicle id="424" type="passenger" depart="188.30">
        <route edges="top0A0.250.00 A0left0"/>
    </vehicle>
    <vehicle id="425" type="passenger" depart="188.55">
        <route edges="right0A0.250.00 A0bottom0"/>
    </vehicle>
    <vehicle id="427" type="passenger" depart="189.10">
        <route edges="bottom0A0.250.00 A0top0"/>
    </vehicle>
    <vehicle id="434" type="passenger" depart="192.50">
        <route edges="right0A0.250.00 A0bottom0"/>
    </vehicle>
    <vehicle id="436" type="passenger" depart="194.55">
        <route edges="right0A0 right0A0.250.00 A0bottom0"/>
    </vehicle>
    <vehicle id="437" type="passenger" depart="194.70">
        <route edges="bottom0A0.250.00"/>
    </vehicle>
    <vehicle id="439" type="passenger" depart="195.25">
        <route edges="left0A0 left0A0.250.00"/>
    </vehicle>
    <vehicle id="443" type="passenger" depart="196.65">
        <route edges="right0A0.250.00 A0left0"/>
    </vehicle>
    <vehicle id="444" type="passenger" depart="197.85">
        <route edges="right0A0.250.00 A0bottom0"/>
    </vehicle>
    <vehicle id="448" type="passenger" depart="200.05">
        <route edges="right0A0 right0A0.250.00 A0left0"/>
    </vehicle>
    <vehicle id="453" type="passenger" depart="202.10">
        <route edges="right0A0 right0A0.250.00 A0top0"/>
    </vehicle>
    <vehicle id="454" type="passenger" depart="202.20">
        <route edges="right0A0 right0A0.250.00"/>
    </vehicle>
    <vehicle id="455" type="passenger" depart="202.30">
        <route edges="top0A0 top0A0.250.00 A0left0"/>
    </vehicle>
    <vehicle id="457" type="passenger" depart="203.60">
        <route edges="bottom0A0.250.00 A0right0"/>
    </vehicle>
    <vehicle id="460" type="passenger" depart="204.25">
        <route edges="bottom0A0.250.00 A0left0"/>
    </vehicle>
    <vehicle id="463" type="passenger" depart="206.05">
        <route edges="top0A0 top0A0.250.00 A0bottom0"/>
    </vehicle>
    <vehicle id="465" type="passenger" depart="207.25">
        <route edges="left0A0 left0A0.250.00 A0right0"/>
    </vehicle>
    <vehicle id="467" type="passenger" depart="207.35">
        <route edges="right0A0 right0A0.250.00 A0top0"/>
    </vehicle>
    <vehicle id="468" type="passenger" depart="207.80">
        <route edges="right0A0 right0A0.250.00"/>
    </vehicle>
    <vehicle id="469" type="passenger" depart="208.30">
        <route edges="top0A0 top0A0.250.00"/>
    </vehicle>
    <vehicle id="470" type="passenger" depart="209.25">
        <route edges="left0A0.250.00 A0top0"/>
    </vehicle>
    <vehicle id="473" type="passenger" depart="209.80">
        <route edges="right0A0.250.00"/>
    </vehicle>
    <vehicle id="479" type="passenger" depart="211.25">
        <route edges="bottom0A0 bottom0A0.250.00"/>
    </vehicle>
    <vehicle id="481" type="passenger" depart="212.10">