<?xml version="1.0" encoding="UTF-8"?>

<!-- generated on 2023-02-12 18:46:34.750689 by randomTrips.py UNKNOWN
<configuration>
    <begin value="0"/>
    <end value="900"/>
    <insertion-rate value="12500.0"/>
    <net-file value="/home/franky3er/Documents/code/HieraGLight/scenarios/grid/5x5-150m/train/24-scenario/network.net.xml"/>
    <random value="True"/>
    <random-depart value="True"/>
    <route-file value="/home/franky3er/Documents/code/HieraGLight/scenarios/grid/5x5-150m/train/24-scenario/routes.rou.xml"/>
    <seed value="24"/>
    <output-trip-file value="/home/franky3er/Documents/code/HieraGLight/scenarios/grid/5x5-150m/train/24-scenario/trips.trips.xml"/>
    <vehicle-class value="passenger"/>
</configuration>
-->

<routes xmlns:xsi="http://www.w3.org/2001/XMLSchema-instance" xsi:noNamespaceSchemaLocation="http://sumo.dlr.de/xsd/routes_file.xsd">
    <vType id="passenger" vClass="passenger"/>
    <trip id="0" depart="0.26" from="B1A1" to="D4C4.80.00" type="passenger"/>
    <trip id="1" depart="0.32" from="B2B3.80.00" to="right1E1.80.00" type="passenger"/>
    <trip id="2" depart="0.34" from="right2E2" to="E2E1.80.00" type="passenger"/>
    <trip id="3" depart="0.40" from="A3B3" to="C4B4.80.00" type="passenger"/>
    <trip id="4" depart="0.66" from="C1D1.80.00" to="bottom3D0.80.00" type="passenger"/>
    <trip id="5" depart="0.90" from="bottom4E0" to="A2B2" type="passenger"/>
    <trip id="6" depart="1.21" from="D4E4" to="E1right1" type="passenger"/>
    <trip id="7" depart="1.58" from="B0B1" to="B1B2.80.00" type="passenger"/>
    <trip id="8" depart="1.90" from="B3B4" to="D1E1" type="passenger"/>
    <trip id="9" depart="1.94" from="C0B0" to="D4top3" type="passenger"/>
    <trip id="10" depart="2.12" from="E0E1" to="E0E1.80.00" type="passenger"/>
    <trip id="11" depart="2.17" from="bottom1B0.80.00" to="B0A0.80.00" type="passenger"/>
    <trip id="12" depart="2.19" from="B2A2" to="E0E1.80.00" type="passenger"/>
    <trip id="13" depart="2.20" from="B2B3.80.00" to="C2C1" type="passenger"/>
    <trip id="14" depart="2.23" from="E4E3.80.00" to="C2C3" type="passenger"/>
    <trip id="15" depart="2.97" from="E1D1" to="C2C1" type="passenger"/>
    <trip id="16" depart="3.43" from="right1E1" to="D3D4.80.00" type="passenger"/>
    <trip id="17" depart="3.70" from="C3C4" to="bottom0A0.80.00" type="passenger"/>
    <trip id="18" depart="3.85" from="D4C4.80.00" to="D0C0" type="passenger"/>
    <trip id="19" depart="3.86" from="B0B1.80.00" to="C4C3.80.00" type="passenger"/>
    <trip id="20" depart="4.04" from="B1B2" to="left2A2.80.00" type="passenger"/>
    <trip id="21" depart="4.07" from="A4B4.80.00" to="D2E2.80.00" type="passenger"/>
    <trip id="22" depart="4.37" from="C3C4" to="A3A4.80.00" type="passenger"/>
    <trip id="23" depart="5.26" from="D4D3" to="bottom1B0.80.00" type="passenger"/>
    <trip id="24" depart="5.27" from="A2A1.80.00" to="B3C3.80.00" type="passenger"/>
    <trip id="25" depart="5.95" from="top0A4" to="D1D2" type="passenger"/>
    <trip id="26" depart="6.02" from="B1B0.80.00" to="B0B1.80.00" type="passenger"/>
    <trip id="27" depart="6.26" from="B1B0.80.00" to="C1C2" type="passenger"/>
    <trip id="28" depart="6.55" from="B0A0" to="left2A2.80.00" type="passenger"/>
    <trip id="29" depart="6.63" from="B0A0" to="B0A0" type="passenger"/>
    <trip id="30" depart="6.92" from="D2C2" to="E2right2" type="passenger"/>
    <trip id="31" depart="7.22" from="B0A0.80.00" to="D3D4.80.00" type="passenger"/>
    <trip id="32" depart="7.40" from="D1D2" to="D2D3" type="passenger"/>
    <trip id="33" depart="7.75" from="B1B2" to="E3right3" type="passenger"/>
    <trip id="34" depart="7.95" from="E4E3.80.00" to="B2C2" type="passenger"/>
    <trip id="35" depart="8.43" from="C2B2" to="D4top3" type="passenger"/>
    <trip id="36" depart="8.93" from="B2B3.80.00" to="B3B4.80.00" type="passenger"/>
    <trip id="37" depart="9.01" from="B3B2" to="B1B2.80.00" type="passenger"/>
    <trip id="38" depart="9.55" from="left3A3.80.00" to="B1A1.80.00" type="passenger"/>
    <trip id="39" depart="9.78" from="E3D3.80.00" to="left3A3.80.00" type="passenger"/>
    <trip id="40" depart="9.94" from="D4E4.80.00" to="A4B4.80.00" type="passenger"/>
    <trip id="41" depart="10.29" from="B1C1" to="A2B2" type="passenger"/>
    <trip id="42" depart="10.43" from="A3B3" to="E4top4" type="passenger"/>
    <trip id="43" depart="10.88" from="E2E3.80.00" to="C4D4.80.00" type="passenger"/>
    <trip id="44" depart="11.55" from="B2B3.80.00" to="C2B2.80.00" type="passenger"/>
    <trip id="45" depart="12.77" from="E4D4.80.00" to="A2B2" type="passenger"/>
    <trip id="46" depart="13.02" from="E1E2" to="A0A1.80.00" type="passenger"/>
    <trip id="47" depart="13.44" from="A1B1" to="C0B0.80.00" type="passenger"/>
    <trip id="48" depart="14.58" from="D3D2.80.00" to="bottom1B0.80.00" type="passenger"/>
    <trip id="49" depart="14.75" from="bottom2C0" to="B2B1" type="passenger"/>
    <trip id="50" depart="14.75" from="left2A2" to="C2B2" type="passenger"/>
    <trip id="51" depart="14.87" from="D1C1" to="E0right0" type="passenger"/>
    <trip id="52" depart="14.94" from="top4E4" to="D4D3.80.00" type="passenger"/>
    <trip id="53" depart="15.11" from="B2A2" to="C4B4" type="passenger"/>
    <trip id="54" depart="15.14" from="D3D4" to="left3A3.80.00" type="passenger"/>
    <trip id="55" depart="15.79" from="E3E2.80.00" to="E4D4" type="passenger"/>
    <trip id="56" depart="15.87" from="E1E2" to="E2right2" type="passenger"/>
    <trip id="57" depart="16.98" from="bottom3D0.80.00" to="A1B1.80.00" type="passenger"/>
    <trip id="58" depart="17.07" from="B3B4.80.00" to="E1E0" type="passenger"/>
    <trip id="59" depart="17.65" from="B2B1.80.00" to="B2B3.80.00" type="passenger"/>
    <trip id="60" depart="17.94" from="A2B2" to="left1A1.80.00" type="passenger"/>
    <trip id="61" depart="18.61" from="C4B4.80.00" to="B1B2.80.00" type="passenger"/>
    <trip id="62" depart="18.72" from="D4D3.80.00" to="C1C0" type="passenger"/>
    <trip id="63" depart="19.89" from="C2D2" to="C3C4" type="passenger"/>
    <trip id="64" depart="20.04" from="right0E0.80.00" to="E3E4" type="passenger"/>
    <trip id="65" depart="20.59" from="C2B2.80.00" to="B2C2" type="passenger"/>
    <trip id="66" depart="20.75" from="A4A3.80.00" to="D3C3" type="passenger"/>
    <trip id="67" depart="20.86" from="D0D1" to="bottom2C0.80.00" type="passenger"/>
    <trip id="68" depart="21.30" from="B2B1" to="B1B2.80.00" type="passenger"/>
    <trip id="69" depart="21.38" from="E3D3.80.00" to="D1D2.80.00" type="passenger"/>
    <trip id="70" depart="21.43" from="left0A0.80.00" to="C1D1.80.00" type="passenger"/>
    <trip id="71" depart="21.47" from="D3D4.80.00" to="D0D1.80.00" type="passenger"/>
    <trip id="72" depart="22.27" from="C4C3.80.00" to="D4C4" type="passenger"/>
    <trip id="73" depart="22.30" from="E4E3.80.00" to="B4A4" type="passenger"/>
    <trip id="74" depart="22.34" from="bottom4E0" to="E0D0.80.00" type="passenger"/>
    <trip id="75" depart="23.23" from="E1D1" to="D1C1.80.00" type="passenger"/>
    <trip id="76" depart="23.29" from="C1B1.80.00" to="D3E3" type="passenger"/>
    <trip id="77" depart="23.57" from="right2E2.80.00" to="A1left1" type="passenger"/>
    <trip id="78" depart="23.86" from="E4E3.80.00" to="A3A2" type="passenger"/>
    <trip id="79" depart="24.14" from="right2E2.80.00" to="D4top3" type="passenger"/>
    <trip id="80" depart="24.31" from="bottom3D0" to="E4top4" type="passenger"/>
    <trip id="81" depart="24.33" from="E4E3" to="B3B4.80.00" type="passenger"/>
    <trip id="82" depart="24.37" from="A3B3" to="right4E4.80.00" type="passenger"/>
    <trip id="83" depart="24.58" from="E4D4" to="B0bottom1" type="passenger"/>
    <trip id="84" depart="25.14" from="C1D1" to="left3A3.80.00" type="passenger"/>
    <trip id="85" depart="25.36" from="B3A3.80.00" to="A2A3.80.00" type="passenger"/>
    <trip id="86" depart="25.47" from="E1E0" to="B0A0.80.00" type="passenger"/>
    <trip id="87" depart="25.87" from="B0A0.80.00" to="left1A1.80.00" type="passenger"/>
    <trip id="88" depart="25.88" from="B1B2" to="E1E2.80.00" type="passenger"/>
    <trip id="89" depart="25.92" from="C3C2" to="C1D1.80.00" type="passenger"/>
    <trip id="90" depart="26.80" from="B2B3" to="D2E2.80.00" type="passenger"/>
    <trip id="91" depart="27.17" from="E4E3" to="A0B0.80.00" type="passenger"/>
    <trip id="92" depart="27.32" from="right2E2" to="E2E1.80.00" type="passenger"/>
    <trip id="93" depart="28.46" from="C4B4" to="B2B3" type="passenger"/>
    <trip id="94" depart="28.74" from="A3A2" to="E1E0.80.00" type="passenger"/>
    <trip id="95" depart="28.74" from="top0A4.80.00" to="D0C0.80.00" type="passenger"/>
    <trip id="96" depart="28.99" from="C2C3.80.00" to="C3C4.80.00" type="passenger"/>
    <trip id="97" depart="29.50" from="A1A0" to="B0C0" type="passenger"/>
    <trip id="98" depart="29.81" from="E2E1" to="C0D0" type="passenger"/>
    <trip id="99" depart="29.91" from="right4E4.80.00" to="B1C1.80.00" type="passenger"/>
    <trip id="100" depart="30.22" from="B4B3.80.00" to="B1B0" type="passenger"/>
    <trip id="101" depart="30.30" from="C2C3" to="D0E0.80.00" type="passenger"/>
    <trip id="102" depart="30.59" from="B3B2.80.00" to="A2B2.80.00" type="passenger"/>
    <trip id="103" depart="31.38" from="A4B4.80.00" to="C4B4" type="passenger"/>
    <trip id="104" depart="31.48" from="B3A3.80.00" to="E0right0" type="passenger"/>
    <trip id="105" depart="31.57" from="left2A2" to="C3D3.80.00" type="passenger"/>
    <trip id="106" depart="32.05" from="A0B0" to="D0D1" type="passenger"/>
    <trip id="107" depart="32.77" from="B1B2.80.00" to="B2B3.80.00" type="passenger"/>
    <trip id="108" depart="32.92" from="left0A0" to="bottom4E0.80.00" type="passenger"/>
    <trip id="109" depart="33.29" from="C0C1" to="E3E2" type="passenger"/>
    <trip id="110" depart="33.67" from="A0B0.80.00" to="E0E1.80.00" type="passenger"/>
    <trip id="111" depart="33.71" from="D0E0" to="C4B4.80.00" type="passenger"/>
    <trip id="112" depart="34.17" from="top1B4.80.00" to="C1D1.80.00" type="passenger"/>
    <trip id="113" depart="34.27" from="C0C1.80.00" to="B0C0" type="passenger"/>
    <trip id="114" depart="34.31" from="C4B4.80.00" to="C3D3" type="passenger"/>
    <trip id="115" depart="34.63" from="A0B0" to="top4E4.80.00" type="passenger"/>
    <trip id="116" depart="34.72" from="A3A4.80.00" to="D4E4.80.00" type="passenger"/>
    <trip id="117" depart="34.85" from="top0A4.80.00" to="C2C3" type="passenger"/>
    <trip id="118" depart="35.03" from="D4E4" to="E2E1.80.00" type="passenger"/>
    <trip id="119" depart="35.17" from="A0A1.80.00" to="A0A1.80.00" type="passenger"/>
    <trip id="120" depart="35.24" from="right1E1.80.00" to="E3right3" type="passenger"/>
    <trip id="121" depart="35.26" from="B2B1" to="B1A1" type="passenger"/>
    <trip id="122" depart="35.29" from="C1C0.80.00" to="C3C4.80.00" type="passenger"/>
    <trip id="123" depart="35.97" from="A1B1.80.00" to="D0D1" type="passenger"/>
    <trip id="124" depart="36.18" from="E2D2" to="A0A1.80.00" type="passenger"/>
    <trip id="125" depart="36.55" from="bottom0A0.80.00" to="D3C3.80.00" type="passenger"/>
    <trip id="126" depart="36.93" from="E1E0" to="D1E1" type="passenger"/>
    <trip id="127" depart="36.94" from="D0D1" to="D3E3" type="passenger"/>
    <trip id="128" depart="37.28" from="D1D2.80.00" to="C4C3.80.00" type="passenger"/>
    <trip id="129" depart="37.42" from="B1C1" to="A0A1.80.00" type="passenger"/>
    <trip id="130" depart="37.46" from="A1A2.80.00" to="A4left4" type="passenger"/>
    <trip id="131" depart="37.84" from="B4B3.80.00" to="C1D1.80.00" type="passenger"/>
    <trip id="132" depart="38.42" from="C2B2.80.00" to="E0E1.80.00" type="passenger"/>
    <trip id="133" depart="38.49" from="B1B0" to="A1A2.80.00" type="passenger"/>
    <trip id="134" depart="38.57" from="B4B3.80.00" to="D4D3.80.00" type="passenger"/>
    <trip id="135" depart="38.97" from="E0E1.80.00" to="B0bottom1" type="passenger"/>
    <trip id="136" depart="39.56" from="D0C0.80.00" to="E1E0" type="passenger"/>
    <trip id="137" depart="39.66" from="C4D4.80.00" to="B4top1" type="passenger"/>
    <trip id="138" depart="39.88" from="B1A1" to="C3B3" type="passenger"/>
    <trip id="139" depart="40.30" from="bottom2C0" to="C1D1.80.00" type="passenger"/>
    <trip id="140" depart="40.54" from="A1B1" to="C4B4.80.00" type="passenger"/>
    <trip id="141" depart="40.62" from="left4A4.80.00" to="C0D0" type="passenger"/>
    <trip id="142" depart="41.47" from="bottom3D0.80.00" to="D0C0.80.00" type="passenger"/>
    <trip id="143" depart="41.55" from="bottom3D0.80.00" to="B0B1" type="passenger"/>
    <trip id="144" depart="41.57" from="E1E0" to="D0C0" type="passenger"/>
    <trip id="145" depart="41.92" from="C0D0.80.00" to="A3left3" type="passenger"/>
    <trip id="146" depart="42.10" from="B1B2.80.00" to="B0bottom1" type="passenger"/>
    <trip id="147" depart="42.59" from="D0D1" to="E0bottom4" type="passenger"/>
    <trip id="148" depart="42.94" from="right4E4" to="C4D4.80.00" type="passenger"/>
    <trip id="149" depart="42.99" from="D2C2" to="B2B3.80.00" type="passenger"/>
    <trip id="150" depart="43.07" from="E1E2" to="B0A0.80.00" type="passenger"/>
    <trip id="151" depart="43.25" from="D3D4" to="A3A4.80.00" type="passenger"/>
    <trip id="152" depart="44.55" from="A4A3" to="B2B3.80.00" type="passenger"/>
    <trip id="153" depart="44.72" from="B3B4.80.00" to="E3E2.80.00" type="passenger"/>
    <trip id="154" depart="44.74" from="D3D4.80.00" to="A1B1.80.00" type="passenger"/>
    <trip id="155" depart="46.27" from="D4C4" to="B1B2.80.00" type="passenger"/>
    <trip id="156" depart="46.45" from="A1A0.80.00" to="D0D1" type="passenger"/>
    <trip id="157" depart="46.48" from="D2E2" to="B0C0.80.00" type="passenger"/>
    <trip id="158" depart="46.59" from="B1B2.80.00" to="D3E3" type="passenger"/>
    <trip id="159" depart="46.77" from="right4E4.80.00" to="E1E0.80.00" type="passenger"/>
    <trip id="160" depart="47.00" from="C4B4.80.00" to="A0A1" type="passenger"/>
    <trip id="161" depart="47.87" from="B4A4" to="D2D1.80.00" type="passenger"/>
    <trip id="162" depart="47.91" from="right4E4.80.00" to="B3C3" type="passenger"/>
    <trip id="163" depart="48.34" from="D1D0" to="B3C3.80.00" type="passenger"/>
    <trip id="164" depart="48.62" from="D3E3.80.00" to="E3E4" type="passenger"/>
    <trip id="165" depart="48.66" from="C3C2" to="E4right4" type="passenger"/>
    <trip id="166" depart="49.06" from="D0E0.80.00" to="E2E3" type="passenger"/>
    <trip id="167" depart="49.09" from="right0E0.80.00" to="C4top2" type="passenger"/>
    <trip id="168" depart="49.52" from="E0D0" to="B2C2" type="passenger"/>
    <trip id="169" depart="49.70" from="D2E2" to="B0A0.80.00" type="passenger"/>
    <trip id="170" depart="49.79" from="A1A0.80.00" to="E3D3" type="passenger"/>
    <trip id="171" depart="50.26" from="top4E4" to="C1C0" type="passenger"/>
    <trip id="172" depart="50.76" from="A0B0.80.00" to="A3A2.80.00" type="passenger"/>
    <trip id="173" depart="50.81" from="B3B4" to="D3D4.80.00" type="passenger"/>
    <trip id="174" depart="50.87" from="D0C0.80.00" to="right2E2.80.00" type="passenger"/>
    <trip id="175" depart="51.18" from="B3B4" to="D4D3" type="passenger"/>
    <trip id="176" depart="51.60" from="top1B4" to="D1D0.80.00" type="passenger"/>
    <trip id="177" depart="52.18" from="B4B3" to="A4B4.80.00" type="passenger"/>
    <trip id="178" depart="52.93" from="right4E4.80.00" to="E0E1.80.00" type="passenger"/>
    <trip id="179" depart="53.26" from="top4E4.80.00" to="E4top4" type="passenger"/>
    <trip id="180" depart="53.47" from="bottom2C0" to="left1A1.80.00" type="passenger"/>
    <trip id="181" depart="53.58" from="D2C2" to="A1B1.80.00" type="passenger"/>
    <trip id="182" depart="53.82" from="C2D2.80.00" to="A4A3" type="passenger"/>
    <trip id="183" depart="53.89" from="C0D0" to="A0bottom0" type="passenger"/>
    <trip id="184" depart="54.32" from="B0C0.80.00" to="C0B0" type="passenger"/>
    <trip id="185" depart="54.86" from="right1E1" to="top4E4.80.00" type="passenger"/>
    <trip id="186" depart="55.42" from="A3B3" to="D4C4" type="passenger"/>
    <trip id="187" depart="55.50" from="B1C1.80.00" to="A4A3" type="passenger"/>
    <trip id="188" depart="56.05" from="D0D1" to="A1A0" type="passenger"/>
    <trip id="189" depart="56.07" from="B3B4.80.00" to="B0bottom1" type="passenger"/>
    <trip id="190" depart="56.57" from="D2E2" to="left3A3.80.00" type="passenger"/>
    <trip id="191" depart="56.62" from="bottom3D0" to="C3D3.80.00" type="passenger"/>
    <trip id="192" depart="56.65" from="C1C0" to="C4C3.80.00" type="passenger"/>
    <trip id="193" depart="57.16" from="bottom2C0.80.00" to="C3D3.80.00" type="passenger"/>
    <trip id="194" depart="57.38" from="C2C1" to="E4E3" type="passenger"/>
    <trip id="195" depart="57.42" from="C1C2.80.00" to="right2E2.80.00" type="passenger"/>
    <trip id="196" depart="57.81" from="D0E0" to="A1left1" type="passenger"/>
    <trip id="197" depart="58.58" from="C4B4.80.00" to="A3A2" type="passenger"/>
    <trip id="198" depart="58.92" from="C3C4.80.00" to="B2C2" type="passenger"/>
    <trip id="199" depart="59.70" from="D4E4" to="C4B4.80.00" type="passenger"/>
    <trip id="200" depart="60.15" from="D4C4" to="C2C3" type="passenger"/>
    <trip id="201" depart="60.40" from="bottom1B0.80.00" to="C4top2" type="passenger"/>
    <trip id="202" depart="60.66" from="left0A0.80.00" to="C3D3" type="passenger"/>
    <trip id="203" depart="61.20" from="B2C2.80.00" to="C0C1" type="passenger"/>
    <trip id="204" depart="61.42" from="C1C2" to="D0D1.80.00" type="passenger"/>
    <trip id="205" depart="61.50" from="A3A4.80.00" to="C4C3" type="passenger"/>
    <trip id="206" depart="61.58" from="right3E3" to="D0C0" type="passenger"/>
    <trip id="207" depart="61.80" from="C0B0.80.00" to="B2C2" type="passenger"/>
    <trip id="208" depart="62.51" from="bottom3D0.80.00" to="A4A3" type="passenger"/>
    <trip id="209" depart="62.55" from="B4B3.80.00" to="D0C0" type="passenger"/>
    <trip id="210" depart="62.69" from="A2A3.80.00" to="C1D1.80.00" type="passenger"/>
    <trip id="211" depart="63.50" from="E1E2" to="C2C3" type="passenger"/>
    <trip id="212" depart="63.63" from="E0E1.80.00" to="E3E2" type="passenger"/>
    <trip id="213" depart="64.32" from="B2B1.80.00" to="B4A4" type="passenger"/>
    <trip id="214" depart="64.53" from="left0A0.80.00" to="top1B4.80.00" type="passenger"/>
    <trip id="215" depart="65.14" from="A1B1.80.00" to="A4A3" type="passenger"/>
    <trip id="216" depart="65.18" from="A3A4" to="B4top1" type="passenger"/>
    <trip id="217" depart="65.54" from="A0A1.80.00" to="E4E3.80.00" type="passenger"/>
    <trip id="218" depart="65.58" from="right1E1" to="right3E3.80.00" type="passenger"/>
    <trip id="219" depart="65.93" from="B1A1.80.00" to="D2D1" type="passenger"/>
    <trip id="220" depart="66.20" from="D2D1" to="D2D3" type="passenger"/>
    <trip id="221" depart="66.43" from="right0E0" to="C1C0.80.00" type="passenger"/>
    <trip id="222" depart="67.06" from="top1B4.80.00" to="A1left1" type="passenger"/>
    <trip id="223" depart="67.20" from="E2E1.80.00" to="A3B3" type="passenger"/>
    <trip id="224" depart="67.22" from="C3C4.80.00" to="B4C4" type="passenger"/>
    <trip id="225" depart="67.36" from="B2B3" to="B0C0.80.00" type="passenger"/>
    <trip id="226" depart="67.50" from="D4E4.80.00" to="B3A3" type="passenger"/>
    <trip id="227" depart="67.59" from="A3B3.80.00" to="D1E1" type="passenger"/>
    <trip id="228" depart="68.18" from="E0E1.80.00" to="D0bottom3" type="passenger"/>
    <trip id="229" depart="68.56" from="D3D4.80.00" to="B1B0" type="passenger"/>
    <trip id="230" depart="68.67" from="B1B2.80.00" to="B0bottom1" type="passenger"/>
    <trip id="231" depart="69.02" from="B4A4" to="B1B2.80.00" type="passenger"/>
    <trip id="232" depart="69.10" from="A2A3.80.00" to="A0A1" type="passenger"/>
    <trip id="233" depart="69.61" from="C3C2" to="B4C4" type="passenger"/>
    <trip id="234" depart="69.66" from="D4E4" to="B0bottom1" type="passenger"/>
    <trip id="235" depart="69.87" from="left2A2" to="B2B3" type="passenger"/>
    <trip id="236" depart="70.45" from="A0B0.80.00" to="B4B3.80.00" type="passenger"/>
    <trip id="237" depart="70.46" from="E0D0" to="E1E0" type="passenger"/>
    <trip id="238" depart="70.50" from="D1E1" to="B0C0" type="passenger"/>
    <trip id="239" depart="70.89" from="B3C3" to="D0C0" type="passenger"/>
    <trip id="240" depart="71.16" from="E2E3" to="E1E2.80.00" type="passenger"/>
    <trip id="241" depart="71.25" from="E0D0.80.00" to="A1B1" type="passenger"/>
    <trip id="242" depart="71.26" from="B2C2.80.00" to="A0B0" type="passenger"/>
    <trip id="243" depart="71.69" from="bottom3D0" to="C0bottom2" type="passenger"/>
    <trip id="244" depart="72.08" from="right2E2" to="E1E0" type="passenger"/>
    <trip id="245" depart="72.54" from="D1E1" to="C2D2.80.00" type="passenger"/>
    <trip id="246" depart="72.72" from="D2D1.80.00" to="B3A3" type="passenger"/>
    <trip id="247" depart="72.83" from="B2A2" to="C2C3.80.00" type="passenger"/>
    <trip id="248" depart="75.86" from="E2E1.80.00" to="B3C3" type="passenger"/>
    <trip id="249" depart="76.37" from="C0D0.80.00" to="E0E1.80.00" type="passenger"/>
    <trip id="250" depart="76.58" from="D3D4.80.00" to="E2E1.80.00" type="passenger"/>
    <trip id="251" depart="76.62" from="D2E2" to="C2B2.80.00" type="passenger"/>
    <trip id="252" depart="76.64" from="B1A1" to="C0bottom2" type="passenger"/>
    <trip id="253" depart="76.78" from="C1C2" to="A1A0" type="passenger"/>
    <trip id="254" depart="76.95" from="A2A1.80.00" to="D4E4" type="passenger"/>
    <trip id="255" depart="77.07" from="D4C4.80.00" to="E2E3.80.00" type="passenger"/>
    <trip id="256" depart="77.28" from="right4E4" to="A1A0.80.00" type="passenger"/>
    <trip id="257" depart="77.30" from="B3C3" to="C0C1.80.00" type="passenger"/>
    <trip id="258" depart="77.71" from="E3D3" to="A2B2.80.00" type="passenger"/>
    <trip id="259" depart="77.79" from="B2A2.80.00" to="B3B2" type="passenger"/>
    <trip id="260" depart="77.94" from="D2E2" to="A3A2" type="passenger"/>
    <trip id="261" depart="78.04" from="A0B0" to="A2A3" type="passenger"/>
    <trip id="262" depart="78.37" from="D3D4" to="C1C0" type="passenger"/>
    <trip id="263" depart="78.53" from="D3D4" to="B2C2.80.00" type="passenger"/>
    <trip id="264" depart="78.86" from="D4E4" to="top3D4.80.00" type="passenger"/>
    <trip id="265" depart="79.05" from="right2E2" to="C3D3.80.00" type="passenger"/>
    <trip id="266" depart="79.20" from="left2A2" to="C3B3.80.00" type="passenger"/>
    <trip id="267" depart="79.27" from="B3B2.80.00" to="A3B3.80.00" type="passenger"/>
    <trip id="268" depart="79.30" from="C4C3" to="D1E1.80.00" type="passenger"/>
    <trip id="269" depart="79.90" from="D3C3.80.00" to="D1D2.80.00" type="passenger"/>
    <trip id="270" depart="80.30" from="B4C4.80.00" to="D2E2" type="passenger"/>
    <trip id="271" depart="80.41" from="A1B1" to="C4B4" type="passenger"/>
    <trip id="272" depart="80.42" from="C1D1.80.00" to="B3B4.80.00" type="passenger"/>
    <trip id="273" depart="80.72" from="E0D0.80.00" to="A3A2" type="passenger"/>
    <trip id="274" depart="81.17" from="C2B2.80.00" to="E1E2" type="passenger"/>
    <trip id="275" depart="81.54" from="A1B1" to="C4B4" type="passenger"/>
    <trip id="276" depart="81.87" from="D2D3" to="B4C4" type="passenger"/>
    <trip id="277" depart="82.23" from="C1D1.80.00" to="E1E0" type="passenger"/>
    <trip id="278" depart="83.27" from="B0C0.80.00" to="D4E4.80.00" type="passenger"/>
    <trip id="279" depart="83.50" from="C3B3.80.00" to="C1C0" type="passenger"/>
    <trip id="280" depart="83.77" from="D0D1" to="E2right2" type="passenger"/>
    <trip id="281" depart="83.77" from="D4C4.80.00" to="B0C0" type="passenger"/>
    <trip id="282" depart="83.98" from="E2E1" to="E0right0" type="passenger"/>
    <trip id="283" depart="84.05" from="B0C0.80.00" to="D3C3" type="passenger"/>
    <trip id="284" depart="84.08" from="A2A3" to="A0bottom0" type="passenger"/>
    <trip id="285" depart="85.14" from="C0B0.80.00" to="D4C4.80.00" type="passenger"/>
    <trip id="286" depart="85.70" from="B4C4" to="D4C4" type="passenger"/>
    <trip id="287" depart="85.83" from="E2E1.80.00" to="C0bottom2" type="passenger"/>
    <trip id="288" depart="86.07" from="B1A1" to="D3D4" type="passenger"/>
    <trip id="289" depart="86.38" from="B2B1.80.00" to="A2A3.80.00" type="passenger"/>
    <trip id="290" depart="86.61" from="C0B0.80.00" to="B3B4.80.00" type="passenger"/>
    <trip id="291" depart="87.68" from="C2D2" to="B2A2" type="passenger"/>
    <trip id="292" depart="88.01" from="left1A1" to="D1D0" type="passenger"/>
    <trip id="293" depart="88.10" from="D2D1.80.00" to="bottom1B0.80.00" type="passenger"/>
    <trip id="294" depart="88.40" from="D4D3" to="E0right0" type="passenger"/>
    <trip id="295" depart="88.51" from="D4E4.80.00" to="E3D3.80.00" type="passenger"/>
    <trip id="296" depart="88.92" from="right0E0.80.00" to="E0E1" type="passenger"/>
    <trip id="297" depart="88.97" from="B3B4.80.00" to="A3B3" type="passenger"/>
    <trip id="298" depart="89.53" from="A3A2.80.00" to="C2D2" type="passenger"/>
    <trip id="299" depart="89.65" from="B1B0.80.00" to="D1E1" type="passenger"/>
    <trip id="300" depart="90.06" from="top2C4.80.00" to="D3D2" type="passenger"/>
    <trip id="301" depart="90.34" from="B3B4" to="C1D1.80.00" type="passenger"/>
    <trip id="302" depart="90.54" from="C1C2.80.00" to="A4A3.80.00" type="passenger"/>
    <trip id="303" depart="90.56" from="E2E1" to="E3E2" type="passenger"/>
    <trip id="304" depart="90.75" from="C1C0" to="right3E3.80.00" type="passenger"/>
    <trip id="305" depart="91.19" from="right2E2.80.00" to="B1C1.80.00" type="passenger"/>
    <trip id="306" depart="91.47" from="A4A3.80.00" to="top0A4.80.00" type="passenger"/>
    <trip id="307" depart="91.62" from="B4C4" to="C3D3" type="passenger"/>
    <trip id="308" depart="92.06" from="C2C3.80.00" to="D1D0.80.00" type="passenger"/>
    <trip id="309" depart="92.58" from="A0B0" to="C1D1.80.00" type="passenger"/>
    <trip id="310" depart="92.79" from="A2A1" to="A3B3.80.00" type="passenger"/>
    <trip id="311" depart="94.16" from="B0C0.80.00" to="B0B1" type="passenger"/>
    <trip id="312" depart="94.53" from="B1B2" to="A1A2" type="passenger"/>
    <trip id="313" depart="94.58" from="C3B3" to="D0C0" type="passenger"/>
    <trip id="314" depart="94.59" from="bottom4E0" to="E4D4.80.00" type="passenger"/>
    <trip id="315" depart="95.66" from="D4E4" to="A4B4" type="passenger"/>
    <trip id="316" depart="95.88" from="D0E0" to="top1B4.80.00" type="passenger"/>
    <trip id="317" depart="96.08" from="C3C4.80.00" to="E1D1" type="passenger"/>
    <trip id="318" depart="96.27" from="C0D0.80.00" to="D0E0" type="passenger"/>
    <trip id="319" depart="96.98" from="D2D1.80.00" to="B2B1" type="passenger"/>
    <trip id="320" depart="97.14" from="top0A4" to="E2D2.80.00" type="passenger"/>
    <trip id="321" depart="97.14" from="top1B4.80.00" to="bottom2C0.80.00" type="passenger"/>
    <trip id="322" depart="97.51" from="bottom3D0.80.00" to="A3A2" type="passenger"/>
    <trip id="323" depart="97.66" from="B2C2.80.00" to="D2D1.80.00" type="passenger"/>
    <trip id="324" depart="97.82" from="D3C3.80.00" to="B2A2" type="passenger"/>
    <trip id="325" depart="97.88" from="E0E1.80.00" to="C3B3" type="passenger"/>
    <trip id="326" depart="98.10" from="C1B1" to="B4C4.80.00" type="passenger"/>
    <trip id="327" depart="99.06" from="C3C2.80.00" to="top4E4.80.00" type="passenger"/>
    <trip id="328" depart="99.27" from="D3D4" to="D2D3.80.00" type="passenger"/>
    <trip id="329" depart="99.34" from="C3C4.80.00" to="D3E3.80.00" type="passenger"/>
    <trip id="330" depart="99.50" from="B0B1" to="D1C1.80.00" type="passenger"/>
    <trip id="331" depart="99.72" from="A0B0.80.00" to="A2A3.80.00" type="passenger"/>
    <trip id="332" depart="99.90" from="C4B4" to="left2A2.80.00" type="passenger"/>
    <trip id="333" depart="99.94" from="right1E1" to="E3E4.80.00" type="passenger"/>
    <trip id="334" depart="100.02" from="B4B3.80.00" to="E3right3" type="passenger"/>
    <trip id="335" depart="100.22" from="A2A3" to="B2B1" type="passenger"/>
    <trip id="336" depart="100.80" from="B2C2" to="D0D1" type="passenger"/>
    <trip id="337" depart="100.95" from="E3D3" to="E0D0" type="passenger"/>
    <trip id="338" depart="100.99" from="D1D0.80.00" to="D3E3" type="passenger"/>
    <trip id="339" depart="101.14" from="D3E3.80.00" to="E3D3" type="passenger"/>
    <trip id="340" depart="101.90" from="C3C4.80.00" to="B2C2.80.00" type="passenger"/>
    <trip id="341" depart="102.23" from="right4E4" to="A3B3.80.00" type="passenger"/>
    <trip id="342" depart="102.86" from="bottom1B0.80.00" to="D3D2.80.00" type="passenger"/>
    <trip id="343" depart="102.93" from="B0B1.80.00" to="E2D2.80.00" type="passenger"/>
    <trip id="344" depart="102.99" from="E0E1" to="C4B4" type="passenger"/>
    <trip id="345" depart="103.25" from="A4B4" to="D4C4" type="passenger"/>
    <trip id="346" depart="104.00" from="E4E3.80.00" to="right0E0.80.00" type="passenger"/>
    <trip id="347" depart="104.19" from="B1C1" to="B0C0" type="passenger"/>
    <trip id="348" depart="104.37" from="C3C4" to="C3B3.80.00" type="passenger"/>
    <trip id="349" depart="104.76" from="bottom0A0.80.00" to="A3B3.80.00" type="passenger"/>
    <trip id="350" depart="104.98" from="B4C4.80.00" to="C2C3" type="passenger"/>
    <trip id="351" depart="105.81" from="C3B3" to="B1B0.80.00" type="passenger"/>
    <trip id="352" depart="105.98" from="B3B4.80.00" to="E4D4" type="passenger"/>
    <trip id="353" depart="106.27" from="bottom4E0" to="A2B2" type="passenger"/>