<?xml version="1.0" encoding="UTF-8"?>

<!-- generated on 2023-02-12 18:46:35.887051 by randomTrips.py UNKNOWN
<configuration>
    <begin value="0"/>
    <end value="900"/>
    <insertion-rate value="12500.0"/>
    <net-file value="/home/franky3er/Documents/code/HieraGLight/scenarios/grid/5x5-150m/train/26-scenario/network.net.xml"/>
    <random value="True"/>
    <random-depart value="True"/>
    <route-file value="/home/franky3er/Documents/code/HieraGLight/scenarios/grid/5x5-150m/train/26-scenario/routes.rou.xml"/>
    <seed value="26"/>
    <output-trip-file value="/home/franky3er/Documents/code/HieraGLight/scenarios/grid/5x5-150m/train/26-scenario/trips.trips.xml"/>
    <vehicle-class value="passenger"/>
</configuration>
-->

<routes xmlns:xsi="http://www.w3.org/2001/XMLSchema-instance" xsi:noNamespaceSchemaLocation="http://sumo.dlr.de/xsd/routes_file.xsd">
    <vType id="passenger" vClass="passenger"/>
    <trip id="0" depart="0.31" from="B1A1" to="E1D1" type="passenger"/>
    <trip id="1" depart="0.38" from="C2D2" to="A3A4.80.00" type="passenger"/>
    <trip id="2" depart="0.73" from="B2B1" to="A3A4" type="passenger"/>
    <trip id="3" depart="0.93" from="right2E2" to="A1A0.80.00" type="passenger"/>
    <trip id="4" depart="1.43" from="C0D0.80.00" to="E3right3" type="passenger"/>
    <trip id="5" depart="1.54" from="top4E4.80.00" to="right3E3.80.00" type="passenger"/>
    <trip id="6" depart="1.66" from="left2A2" to="B2C2.80.00" type="passenger"/>
    <trip id="7" depart="1.89" from="C3B3.80.00" to="C0B0" type="passenger"/>
    <trip id="8" depart="2.48" from="C1D1.80.00" to="D0E0.80.00" type="passenger"/>
    <trip id="9" depart="2.68" from="bottom1B0" to="B4top1" type="passenger"/>
    <trip id="10" depart="2.94" from="D2D3.80.00" to="B3C3.80.00" type="passenger"/>
    <trip id="11" depart="2.96" from="C3C2.80.00" to="A3left3" type="passenger"/>
    <trip id="12" depart="3.26" from="C1D1.80.00" to="B2C2.80.00" type="passenger"/>
    <trip id="13" depart="3.46" from="top1B4.80.00" to="E4top4" type="passenger"/>
    <trip id="14" depart="3.58" from="E2E1" to="top0A4.80.00" type="passenger"/>
    <trip id="15" depart="3.90" from="B1B2" to="B0A0.80.00" type="passenger"/>
    <trip id="16" depart="4.90" from="D4D3" to="E1E2" type="passenger"/>
    <trip id="17" depart="6.20" from="B0C0" to="D0D1.80.00" type="passenger"/>
    <trip id="18" depart="6.32" from="right2E2" to="top3D4.80.00" type="passenger"/>
    <trip id="19" depart="6.47" from="A1A2" to="D1D2.80.00" type="passenger"/>
    <trip id="20" depart="7.49" from="E4D4.80.00" to="E1right1" type="passenger"/>
    <trip id="21" depart="7.60" from="A2A1" to="B2B3.80.00" type="passenger"/>
    <trip id="22" depart="8.00" from="C3C2" to="top2C4.80.00" type="passenger"/>
    <trip id="23" depart="8.19" from="C1C2" to="A2left2" type="passenger"/>
    <trip id="24" depart="8.21" from="right0E0.80.00" to="C2D2.80.00" type="passenger"/>
    <trip id="25" depart="8.21" from="E1E2.80.00" to="B1A1" type="passenger"/>
    <trip id="26" depart="8.50" from="B3A3.80.00" to="A3A2.80.00" type="passenger"/>
    <trip id="27" depart="8.77" from="top1B4" to="A4B4.80.00" type="passenger"/>
    <trip id="28" depart="8.94" from="D4D3.80.00" to="C1C0" type="passenger"/>
    <trip id="29" depart="9.06" from="B1B0.80.00" to="E1E0.80.00" type="passenger"/>
    <trip id="30" depart="9.48" from="left4A4" to="E0D0.80.00" type="passenger"/>
    <trip id="31" depart="9.86" from="A4B4.80.00" to="B0B1.80.00" type="passenger"/>
    <trip id="32" depart="9.95" from="D0C0" to="E3E4" type="passenger"/>
    <trip id="33" depart="10.88" from="D3E3" to="A4left4" type="passenger"/>
    <trip id="34" depart="10.96" from="B3C3" to="A0A1.80.00" type="passenger"/>
    <trip id="35" depart="11.06" from="D0C0.80.00" to="B4A4.80.00" type="passenger"/>
    <trip id="36" depart="11.15" from="right3E3" to="B1C1.80.00" type="passenger"/>
    <trip id="37" depart="11.32" from="E0D0" to="D0C0" type="passenger"/>
    <trip id="38" depart="11.95" from="D3E3.80.00" to="D0D1" type="passenger"/>
    <trip id="39" depart="12.52" from="D1C1" to="A2A1" type="passenger"/>
    <trip id="40" depart="12.56" from="C0B0" to="E1E2.80.00" type="passenger"/>
    <trip id="41" depart="12.94" from="E2D2.80.00" to="right1E1.80.00" type="passenger"/>
    <trip id="42" depart="12.97" from="E0E1" to="B3B2.80.00" type="passenger"/>
    <trip id="43" depart="13.05" from="right0E0.80.00" to="E2right2" type="passenger"/>
    <trip id="44" depart="13.25" from="top3D4.80.00" to="B1B2.80.00" type="passenger"/>
    <trip id="45" depart="14.75" from="A3B3.80.00" to="D2D3" type="passenger"/>
    <trip id="46" depart="15.87" from="C4C3.80.00" to="B3B4" type="passenger"/>
    <trip id="47" depart="15.90" from="E1E2" to="D0E0.80.00" type="passenger"/>
    <trip id="48" depart="15.94" from="D2D1.80.00" to="D0D1" type="passenger"/>
    <trip id="49" depart="16.02" from="A0A1.80.00" to="A4A3.80.00" type="passenger"/>
    <trip id="50" depart="16.09" from="D2C2.80.00" to="A1A2.80.00" type="passenger"/>
    <trip id="51" depart="16.22" from="C3D3.80.00" to="C1C2" type="passenger"/>
    <trip id="52" depart="16.50" from="D2C2" to="D1D2.80.00" type="passenger"/>
    <trip id="53" depart="16.93" from="left0A0.80.00" to="E1right1" type="passenger"/>
    <trip id="54" depart="17.12" from="C1B1.80.00" to="D1C1" type="passenger"/>
    <trip id="55" depart="17.14" from="C2C3.80.00" to="C2C1" type="passenger"/>
    <trip id="56" depart="17.42" from="B3B2.80.00" to="D2E2" type="passenger"/>
    <trip id="57" depart="17.49" from="bottom2C0" to="E0E1.80.00" type="passenger"/>
    <trip id="58" depart="17.51" from="D3E3" to="D1D2.80.00" type="passenger"/>
    <trip id="59" depart="17.80" from="right2E2.80.00" to="A2A1" type="passenger"/>
    <trip id="60" depart="17.85" from="A3A4" to="C3B3" type="passenger"/>
    <trip id="61" depart="17.94" from="D1C1.80.00" to="B0B1.80.00" type="passenger"/>
    <trip id="62" depart="18.07" from="left4A4" to="B3C3" type="passenger"/>
    <trip id="63" depart="18.62" from="C4C3" to="B3A3" type="passenger"/>
    <trip id="64" depart="18.79" from="bottom4E0" to="A0left0" type="passenger"/>
    <trip id="65" depart="18.99" from="B1A1" to="A3A2.80.00" type="passenger"/>
    <trip id="66" depart="19.13" from="B2A2.80.00" to="D0D1" type="passenger"/>
    <trip id="67" depart="19.56" from="A2B2.80.00" to="B1C1" type="passenger"/>
    <trip id="68" depart="19.66" from="left1A1.80.00" to="B4C4" type="passenger"/>
    <trip id="69" depart="20.28" from="D0E0.80.00" to="C1C0.80.00" type="passenger"/>
    <trip id="70" depart="20.48" from="E3D3" to="top0A4.80.00" type="passenger"/>
    <trip id="71" depart="20.87" from="D3D2.80.00" to="A1A0.80.00" type="passenger"/>
    <trip id="72" depart="21.49" from="B3C3.80.00" to="D4D3" type="passenger"/>
    <trip id="73" depart="21.77" from="C2C3" to="D1D2.80.00" type="passenger"/>
    <trip id="74" depart="21.82" from="D2E2.80.00" to="top4E4.80.00" type="passenger"/>
    <trip id="75" depart="22.23" from="C4C3.80.00" to="D1C1" type="passenger"/>
    <trip id="76" depart="22.27" from="bottom4E0" to="E0E1" type="passenger"/>
    <trip id="77" depart="22.33" from="bottom3D0.80.00" to="D1D0.80.00" type="passenger"/>
    <trip id="78" depart="22.61" from="left3A3" to="B4A4" type="passenger"/>
    <trip id="79" depart="22.91" from="C2C1.80.00" to="C3B3" type="passenger"/>
    <trip id="80" depart="22.95" from="A3A2.80.00" to="C2B2" type="passenger"/>
    <trip id="81" depart="23.04" from="B1A1" to="E0E1" type="passenger"/>
    <trip id="82" depart="23.30" from="A2B2" to="left2A2.80.00" type="passenger"/>
    <trip id="83" depart="23.62" from="D2D1.80.00" to="C1B1" type="passenger"/>
    <trip id="84" depart="23.70" from="C2D2" to="B3B2.80.00" type="passenger"/>
    <trip id="85" depart="23.71" from="B1B2.80.00" to="right2E2.80.00" type="passenger"/>
    <trip id="86" depart="23.79" from="top2C4" to="bottom3D0.80.00" type="passenger"/>
    <trip id="87" depart="24.18" from="top0A4" to="E4E3.80.00" type="passenger"/>
    <trip id="88" depart="24.30" from="D1D0.80.00" to="A1B1" type="passenger"/>
    <trip id="89" depart="24.71" from="D2E2.80.00" to="C4C3" type="passenger"/>
    <trip id="90" depart="24.99" from="top2C4.80.00" to="A2A1" type="passenger"/>
    <trip id="91" depart="25.08" from="A3B3.80.00" to="A1A2" type="passenger"/>
    <trip id="92" depart="25.09" from="E0D0" to="D4top3" type="passenger"/>
    <trip id="93" depart="25.54" from="C3C4" to="C1C2.80.00" type="passenger"/>
    <trip id="94" depart="25.58" from="E3E4" to="C0D0.80.00" type="passenger"/>
    <trip id="95" depart="25.87" from="E2E1.80.00" to="D0D1" type="passenger"/>
    <trip id="96" depart="26.30" from="A2A3" to="C3B3.80.00" type="passenger"/>
    <trip id="97" depart="26.40" from="A1B1.80.00" to="D1D2.80.00" type="passenger"/>
    <trip id="98" depart="26.46" from="D3D4.80.00" to="B3B4" type="passenger"/>
    <trip id="99" depart="26.78" from="top2C4" to="B1B2.80.00" type="passenger"/>
    <trip id="100" depart="26.82" from="right1E1" to="E1E2.80.00" type="passenger"/>
    <trip id="101" depart="27.10" from="D1E1.80.00" to="A1A2" type="passenger"/>
    <trip id="102" depart="27.20" from="E4D4" to="right4E4.80.00" type="passenger"/>
    <trip id="103" depart="27.32" from="C1D1.80.00" to="E3E2.80.00" type="passenger"/>
    <trip id="104" depart="27.43" from="C4D4.80.00" to="B0C0" type="passenger"/>
    <trip id="105" depart="27.97" from="B3A3" to="right0E0.80.00" type="passenger"/>
    <trip id="106" depart="28.83" from="A2A1" to="B1B2.80.00" type="passenger"/>
    <trip id="107" depart="28.93" from="B2A2.80.00" to="left4A4.80.00" type="passenger"/>
    <trip id="108" depart="29.14" from="D3D2" to="D4D3.80.00" type="passenger"/>
    <trip id="109" depart="29.61" from="C1D1.80.00" to="C0bottom2" type="passenger"/>
    <trip id="110" depart="29.71" from="E2E3" to="B0A0" type="passenger"/>
    <trip id="111" depart="30.00" from="top0A4.80.00" to="A1A2" type="passenger"/>
    <trip id="112" depart="30.30" from="A3A4" to="A4A3" type="passenger"/>
    <trip id="113" depart="30.58" from="left0A0.80.00" to="bottom3D0.80.00" type="passenger"/>
    <trip id="114" depart="30.58" from="A2A3.80.00" to="B4C4" type="passenger"/>
    <trip id="115" depart="30.74" from="E2D2" to="C0D0.80.00" type="passenger"/>
    <trip id="116" depart="31.44" from="C1C2" to="C0bottom2" type="passenger"/>
    <trip id="117" depart="32.86" from="C2C1.80.00" to="top3D4.80.00" type="passenger"/>
    <trip id="118" depart="33.00" from="right4E4" to="bottom3D0.80.00" type="passenger"/>
    <trip id="119" depart="33.03" from="D4E4.80.00" to="right2E2.80.00" type="passenger"/>
    <trip id="120" depart="33.08" from="C0D0.80.00" to="C3B3.80.00" type="passenger"/>
    <trip id="121" depart="33.11" from="C0D0.80.00" to="C3C4" type="passenger"/>
    <trip id="122" depart="33.57" from="B0A0.80.00" to="A0left0" type="passenger"/>
    <trip id="123" depart="33.75" from="C2C3" to="B3A3.80.00" type="passenger"/>
    <trip id="124" depart="33.97" from="bottom1B0" to="D4E4" type="passenger"/>
    <trip id="125" depart="33.97" from="E2E3" to="A1A0" type="passenger"/>
    <trip id="126" depart="34.32" from="E0E1" to="A0B0" type="passenger"/>
    <trip id="127" depart="34.42" from="C1B1.80.00" to="D4E4.80.00" type="passenger"/>
    <trip id="128" depart="34.83" from="A0A1" to="D1E1.80.00" type="passenger"/>
    <trip id="129" depart="34.90" from="top3D4" to="bottom1B0.80.00" type="passenger"/>
    <trip id="130" depart="34.99" from="B2B1" to="D2D3.80.00" type="passenger"/>
    <trip id="131" depart="35.22" from="A2A1" to="B4C4" type="passenger"/>
    <trip id="132" depart="35.54" from="C3C4.80.00" to="B0A0.80.00" type="passenger"/>
    <trip id="133" depart="35.93" from="left4A4.80.00" to="B0B1" type="passenger"/>
    <trip id="134" depart="36.02" from="A4B4.80.00" to="left3A3.80.00" type="passenger"/>
    <trip id="135" depart="36.10" from="E0E1.80.00" to="D1D0" type="passenger"/>
    <trip id="136" depart="36.50" from="D4C4.80.00" to="A1A0.80.00" type="passenger"/>
    <trip id="137" depart="36.64" from="E3D3.80.00" to="B3C3.80.00" type="passenger"/>
    <trip id="138" depart="37.45" from="B2B3" to="D2D1.80.00" type="passenger"/>
    <trip id="139" depart="37.50" from="B4C4" to="C3C2" type="passenger"/>
    <trip id="140" depart="38.01" from="A1B1.80.00" to="top1B4.80.00" type="passenger"/>
    <trip id="141" depart="38.08" from="B3B2.80.00" to="A0bottom0" type="passenger"/>
    <trip id="142" depart="38.31" from="B1B0" to="B3A3.80.00" type="passenger"/>
    <trip id="143" depart="38.44" from="A4A3" to="A4A3.80.00" type="passenger"/>
    <trip id="144" depart="39.10" from="B0C0" to="D3D4.80.00" type="passenger"/>
    <trip id="145" depart="39.34" from="B4B3" to="A1B1.80.00" type="passenger"/>
    <trip id="146" depart="39.66" from="D2C2.80.00" to="A3A2" type="passenger"/>
    <trip id="147" depart="40.64" from="E1E0" to="right1E1.80.00" type="passenger"/>
    <trip id="148" depart="40.94" from="B3C3" to="A0A1" type="passenger"/>
    <trip id="149" depart="41.02" from="B1C1.80.00" to="D1D0" type="passenger"/>
    <trip id="150" depart="41.32" from="C2C3.80.00" to="C0C1.80.00" type="passenger"/>
    <trip id="151" depart="41.39" from="D4D3" to="D1D2" type="passenger"/>
    <trip id="152" depart="41.74" from="D2D3.80.00" to="A4left4" type="passenger"/>
    <trip id="153" depart="42.03" from="D1D0.80.00" to="E1E2.80.00" type="passenger"/>
    <trip id="154" depart="42.58" from="right0E0" to="E0E1.80.00" type="passenger"/>
    <trip id="155" depart="42.98" from="B4C4.80.00" to="B4C4.80.00" type="passenger"/>
    <trip id="156" depart="43.76" from="top1B4" to="B1A1" type="passenger"/>
    <trip id="157" depart="43.91" from="E3E2" to="bottom3D0.80.00" type="passenger"/>
    <trip id="158" depart="44.02" from="B1C1.80.00" to="D0D1.80.00" type="passenger"/>
    <trip id="159" depart="44.32" from="A1B1" to="D0D1" type="passenger"/>
    <trip id="160" depart="44.38" from="B0A0.80.00" to="D2E2" type="passenger"/>
    <trip id="161" depart="44.71" from="A0B0" to="D3D4.80.00" type="passenger"/>
    <trip id="162" depart="44.74" from="C2C3.80.00" to="right2E2.80.00" type="passenger"/>
    <trip id="163" depart="45.04" from="A2A3" to="E1E0" type="passenger"/>
    <trip id="164" depart="45.23" from="C3C2" to="C4B4.80.00" type="passenger"/>
    <trip id="165" depart="45.28" from="E2E3.80.00" to="B3A3.80.00" type="passenger"/>
    <trip id="166" depart="45.31" from="E1D1.80.00" to="E2E3.80.00" type="passenger"/>
    <trip id="167" depart="45.38" from="B2B3" to="A4A3" type="passenger"/>
    <trip id="168" depart="45.52" from="bottom2C0" to="E0D0.80.00" type="passenger"/>
    <trip id="169" depart="45.74" from="left3A3" to="B2B3.80.00" type="passenger"/>
    <trip id="170" depart="46.35" from="bottom0A0" to="D0C0.80.00" type="passenger"/>
    <trip id="171" depart="46.53" from="B0B1.80.00" to="left0A0.80.00" type="passenger"/>
    <trip id="172" depart="46.58" from="A4B4" to="C3B3.80.00" type="passenger"/>
    <trip id="173" depart="46.59" from="E1E2" to="D0bottom3" type="passenger"/>
    <trip id="174" depart="46.63" from="right2E2.80.00" to="right0E0.80.00" type="passenger"/>
    <trip id="175" depart="47.22" from="C0B0" to="E4E3" type="passenger"/>
    <trip id="176" depart="47.65" from="right3E3.80.00" to="C4C3" type="passenger"/>
    <trip id="177" depart="47.65" from="top3D4" to="A1A0.80.00" type="passenger"/>
    <trip id="178" depart="48.07" from="C0B0.80.00" to="right2E2.80.00" type="passenger"/>
    <trip id="179" depart="48.33" from="D1D2.80.00" to="E0E1" type="passenger"/>
    <trip id="180" depart="48.48" from="E0E1" to="C2C1.80.00" type="passenger"/>
    <trip id="181" depart="48.72" from="E1D1" to="E0right0" type="passenger"/>
    <trip id="182" depart="49.22" from="E4D4.80.00" to="B1B0.80.00" type="passenger"/>
    <trip id="183" depart="49.92" from="A0A1" to="C0B0" type="passenger"/>
    <trip id="184" depart="50.76" from="E0D0" to="C2C3" type="passenger"/>
    <trip id="185" depart="50.87" from="E1E0" to="A4A3" type="passenger"/>
    <trip id="186" depart="50.94" from="C0B0" to="C3C4" type="passenger"/>
    <trip id="187" depart="51.57" from="A4A3" to="D3D4.80.00" type="passenger"/>
    <trip id="188" depart="52.22" from="left4A4.80.00" to="right3E3.80.00" type="passenger"/>
    <trip id="189" depart="52.33" from="B0A0.80.00" to="E3right3" type="passenger"/>
    <trip id="190" depart="52.37" from="E4D4" to="B2B1" type="passenger"/>
    <trip id="191" depart="53.62" from="B2B1" to="top2C4.80.00" type="passenger"/>
    <trip id="192" depart="53.77" from="A3B3" to="C4C3" type="passenger"/>
    <trip id="193" depart="54.02" from="E3E2" to="D3D2.80.00" type="passenger"/>
    <trip id="194" depart="54.09" from="B3A3" to="left4A4.80.00" type="passenger"/>
    <trip id="195" depart="54.43" from="A3A2" to="D3D2.80.00" type="passenger"/>
    <trip id="196" depart="54.54" from="B4C4.80.00" to="B1C1" type="passenger"/>
    <trip id="197" depart="55.14" from="left0A0" to="D4D3" type="passenger"/>
    <trip id="198" depart="55.68" from="D3D2" to="A4B4.80.00" type="passenger"/>
    <trip id="199" depart="55.94" from="E4D4" to="E3right3" type="passenger"/>
    <trip id="200" depart="56.12" from="A4B4" to="E2E1" type="passenger"/>
    <trip id="201" depart="56.50" from="D1D2.80.00" to="E0E1" type="passenger"/>
    <trip id="202" depart="56.66" from="D1D0" to="C4C3.80.00" type="passenger"/>
    <trip id="203" depart="57.33" from="C4C3.80.00" to="D0D1" type="passenger"/>
    <trip id="204" depart="57.62" from="C1B1" to="E4D4.80.00" type="passenger"/>
    <trip id="205" depart="57.86" from="C4D4.80.00" to="D3D2.80.00" type="passenger"/>
    <trip id="206" depart="58.02" from="bottom4E0.80.00" to="E1E2.80.00" type="passenger"/>
    <trip id="207" depart="58.16" from="C4D4" to="C1D1" type="passenger"/>
    <trip id="208" depart="58.78" from="D0D1.80.00" to="A1B1" type="passenger"/>
    <trip id="209" depart="58.95" from="E3E4.80.00" to="E3D3" type="passenger"/>
    <trip id="210" depart="59.18" from="D2E2" to="C4D4" type="passenger"/>
    <trip id="211" depart="59.46" from="left1A1" to="A0A1.80.00" type="passenger"/>
    <trip id="212" depart="59.94" from="B0C0" to="E2D2.80.00" type="passenger"/>
    <trip id="213" depart="60.42" from="C1C0.80.00" to="D0C0.80.00" type="passenger"/>
    <trip id="214" depart="60.58" from="B0B1" to="A1A0" type="passenger"/>
    <trip id="215" depart="61.00" from="A2A1.80.00" to="B2B1.80.00" type="passenger"/>
    <trip id="216" depart="61.07" from="B2B1.80.00" to="top3D4.80.00" type="passenger"/>
    <trip id="217" depart="61.23" from="D1C1.80.00" to="A4top0" type="passenger"/>
    <trip id="218" depart="61.34" from="A3A4" to="A3A2.80.00" type="passenger"/>
    <trip id="219" depart="61.37" from="top1B4" to="C4C3.80.00" type="passenger"/>
    <trip id="220" depart="61.46" from="B1C1" to="B3B4.80.00" type="passenger"/>
    <trip id="221" depart="62.05" from="A3B3.80.00" to="C3C4.80.00" type="passenger"/>
    <trip id="222" depart="62.06" from="B0A0.80.00" to="E0D0.80.00" type="passenger"/>
    <trip id="223" depart="62.25" from="E3E2" to="left1A1.80.00" type="passenger"/>
    <trip id="224" depart="62.26" from="B0A0.80.00" to="A4B4.80.00" type="passenger"/>
    <trip id="225" depart="62.37" from="A0B0.80.00" to="C0B0" type="passenger"/>
    <trip id="226" depart="62.71" from="left4A4.80.00" to="E2E1.80.00" type="passenger"/>
    <trip id="227" depart="63.22" from="D4C4" to="E0E1" type="passenger"/>
    <trip id="228" depart="63.29" from="B1B2" to="B1B0" type="passenger"/>
    <trip id="229" depart="63.46" from="E4D4.80.00" to="C3C4" type="passenger"/>
    <trip id="230" depart="63.47" from="B3A3" to="A3B3.80.00" type="passenger"/>
    <trip id="231" depart="63.57" from="right1E1" to="E4E3" type="passenger"/>
    <trip id="232" depart="64.26" from="A4B4" to="C4B4.80.00" type="passenger"/>
    <trip id="233" depart="64.37" from="B3A3" to="E4D4" type="passenger"/>
    <trip id="234" depart="64.49" from="top1B4" to="C2D2.80.00" type="passenger"/>
    <trip id="235" depart="65.06" from="A1A0.80.00" to="C3C2.80.00" type="passenger"/>
    <trip id="236" depart="65.13" from="C1C0.80.00" to="E1E0.80.00" type="passenger"/>
    <trip id="237" depart="65.30" from="top4E4.80.00" to="E1D1.80.00" type="passenger"/>
    <trip id="238" depart="65.50" from="left0A0" to="A2B2.80.00" type="passenger"/>
    <trip id="239" depart="65.78" from="B2C2" to="D4C4" type="passenger"/>
    <trip id="240" depart="65.81" from="A3A4.80.00" to="D2C2" type="passenger"/>
    <trip id="241" depart="66.13" from="C2C3" to="D3D2.80.00" type="passenger"/>
    <trip id="242" depart="66.15" from="E4E3.80.00" to="bottom2C0.80.00" type="passenger"/>
    <trip id="243" depart="67.15" from="D3D4.80.00" to="D0bottom3" type="passenger"/>
    <trip id="244" depart="68.96" from="E3E4.80.00" to="B2C2" type="passenger"/>
    <trip id="245" depart="69.26" from="D4D3" to="C0C1.80.00" type="passenger"/>
    <trip id="246" depart="69.39" from="bottom0A0" to="C0B0.80.00" type="passenger"/>
    <trip id="247" depart="69.73" from="B4C4.80.00" to="left2A2.80.00" type="passenger"/>
    <trip id="248" depart="69.75" from="C0C1.80.00" to="C1C0.80.00" type="passenger"/>
    <trip id="249" depart="70.14" from="D2E2.80.00" to="bottom4E0.80.00" type="passenger"/>
    <trip id="250" depart="70.51" from="A0B0.80.00" to="A2A1" type="passenger"/>
    <trip id="251" depart="70.59" from="D1D0.80.00" to="E3D3" type="passenger"/>
    <trip id="252" depart="70.96" from="C4D4" to="A3B3.80.00" type="passenger"/>
    <trip id="253" depart="71.14" from="D2C2.80.00" to="E4D4" type="passenger"/>
    <trip id="254" depart="71.47" from="D0C0" to="A1A2" type="passenger"/>
    <trip id="255" depart="71.78" from="E1E0.80.00" to="E0E1.80.00" type="passenger"/>
    <trip id="256" depart="72.39" from="D4E4.80.00" to="D0D1.80.00" type="passenger"/>
    <trip id="257" depart="72.61" from="top1B4.80.00" to="A0B0" type="passenger"/>
    <trip id="258" depart="72.62" from="A0B0" to="top2C4.80.00" type="passenger"/>
    <trip id="259" depart="72.78" from="E3E2.80.00" to="B0A0.80.00" type="passenger"/>
    <trip id="260" depart="73.33" from="A3B3.80.00" to="top2C4.80.00" type="passenger"/>
    <trip id="261" depart="73.38" from="B0B1" to="C1C0" type="passenger"/>
    <trip id="262" depart="73.53" from="C1C0" to="D2D1.80.00" type="passenger"/>
    <trip id="263" depart="73.82" from="B2B1" to="D2D3" type="passenger"/>
    <trip id="264" depart="74.11" from="E0E1" to="A2A1" type="passenger"/>
    <trip id="265" depart="74.23" from="A3A2" to="E1E0" type="passenger"/>
    <trip id="266" depart="74.26" from="D1C1" to="B1A1.80.00" type="passenger"/>
    <trip id="267" depart="74.29" from="right1E1" to="left1A1.80.00" type="passenger"/>
    <trip id="268" depart="74.51" from="D3C3" to="E0E1.80.00" type="passenger"/>
    <trip id="269" depart="74.88" from="E4D4" to="right2E2.80.00" type="passenger"/>
    <trip id="270" depart="75.19" from="E2D2" to="B0C0.80.00" type="passenger"/>
    <trip id="271" depart="75.22" from="A0B0.80.00" to="E0bottom4" type="passenger"/>
    <trip id="272" depart="75.78" from="bottom0A0" to="D0D1.80.00" type="passenger"/>
    <trip id="273" depart="76.25" from="D2D1" to="bottom1B0.80.00" type="passenger"/>
    <trip id="274" depart="76.66" from="E3E4" to="C3B3.80.00" type="passenger"/>
    <trip id="275" depart="77.79" from="B1A1" to="B4B3" type="passenger"/>
    <trip id="276" depart="77.87" from="A1B1.80.00" to="A3A4" type="passenger"/>
    <trip id="277" depart="78.42" from="B1C1" to="D2D1.80.00" type="passenger"/>
    <trip id="278" depart="78.46" from="A3A4" to="B3B2" type="passenger"/>
    <trip id="279" depart="78.62" from="B2A2" to="A2B2" type="passenger"/>
    <trip id="280" depart="79.30" from="D2C2.80.00" to="B1C1.80.00" type="passenger"/>
    <trip id="281" depart="79.32" from="E3E4.80.00" to="left3A3.80.00" type="passenger"/>
    <trip id="282" depart="79.33" from="A3A4" to="D3D4.80.00" type="passenger"/>
    <trip id="283" depart="79.34" from="B1B2" to="bottom3D0.80.00" type="passenger"/>
    <trip id="284" depart="79.50" from="A1B1" to="A1A0.80.00" type="passenger"/>
    <trip id="285" depart="79.86" from="A4A3" to="B2A2" type="passenger"/>
    <trip id="286" depart="80.35" from="C2B2" to="B3C3" type="passenger"/>
    <trip id="287" depart="80.62" from="E4E3.80.00" to="E4D4" type="passenger"/>
    <trip id="288" depart="80.66" from="C3B3.80.00" to="C2B2" type="passenger"/>
    <trip id="289" depart="80.96" from="A1A0.80.00" to="B4C4" type="passenger"/>
    <trip id="290" depart="81.10" from="C3C4" to="D2C2" type="passenger"/>
    <trip id="291" depart="81.57" from="D2D1" to="C0C1.80.00" type="passenger"/>
    <trip id="292" depart="81.59" from="D4C4.80.00" to="B4top1" type="passenger"/>
    <trip id="293" depart="82.16" from="right4E4" to="E3right3" type="passenger"/>
    <trip id="294" depart="82.24" from="D1D2.80.00" to="C4D4.80.00" type="passenger"/>
    <trip id="295" depart="82.82" from="C3C4" to="B3A3.80.00" type="passenger"/>
    <trip id="296" depart="83.65" from="A0A1.80.00" to="C3C4" type="passenger"/>
    <trip id="297" depart="83.88" from="B3B4.80.00" to="C3C4" type="passenger"/>
    <trip id="298" depart="84.18" from="bottom1B0" to="D3C3.80.00" type="passenger"/>
    <trip id="299" depart="84.32" from="E3E2.80.00" to="right0E0.80.00" type="passenger"/>
    <trip id="300" depart="84.41" from="E3E4" to="D3D4.80.00" type="passenger"/>
    <trip id="301" depart="84.42" from="B2B3" to="E3D3" type="passenger"/>
    <trip id="302" depart="85.34" from="top3D4" to="C4B4.80.00" type="passenger"/>
    <trip id="303" depart="86.30" from="D1E1" to="A2A3" type="passenger"/>
    <trip id="304" depart="86.68" from="C2C1.80.00" to="C4C3" type="passenger"/>
    <trip id="305" depart="86.88" from="D1D2" to="B2B3" type="passenger"/>
    <trip id="306" depart="86.88" from="D3C3" to="E2D2" type="passenger"/>
    <trip id="307" depart="87.85" from="B0C0" to="B0B1.80.00" type="passenger"/>
    <trip id="308" depart="88.18" from="left1A1.80.00" to="D1C1" type="passenger"/>
    <trip id="309" depart="88.27" from="D4E4.80.00" to="D3D4.80.00" type="passenger"/>
    <trip id="310" depart="88.38" from="D1C1.80.00" to="E1E2.80.00" type="passenger"/>
    <trip id="311" depart="88.47" from="D0E0" to="B0C0.80.00" type="passenger"/>
    <trip id="312" depart="90.10" from="D3C3" to="C3D3" type="passenger"/>
    <trip id="313" depart="90.18" from="A2B2.80.00" to="A0B0" type="passenger"/>
    <trip id="314" depart="90.56" from="bottom3D0" to="C3B3" type="passenger"/>
    <trip id="315" depart="90.77" from="B1C1.80.00" to="D4E4" type="passenger"/>
    <trip id="316" depart="90.86" from="A4A3.80.00" to="A1A2.80.00" type="passenger"/>
    <trip id="317" depart="91.31" from="C0C1" to="B1B2" type="passenger"/>
    <trip id="318" depart="91.60" from="A3B3.80.00" to="D4C4.80.00" type="passenger"/>
    <trip id="319" depart="91.67" from="bottom4E0" to="left2A2.80.00" type="passenger"/>
    <trip id="320" depart="91.95" from="A3B3" to="C1C0" type="passenger"/>
    <trip id="321" depart="92.60" from="D3D4" to="C0D0.80.00" type="passenger"/>
    <trip id="322" depart="92.66" from="E1E2" to="D4top3" type="passenger"/>
    <trip id="323" depart="93.12" from="top3D4.80.00" to="left2A2.80.00" type="passenger"/>
    <trip id="324" depart="93.62" from="D1E1.80.00" to="E4E3" type="passenger"/>
    <trip id="325" depart="94.16" from="C2D2.80.00" to="E0D0" type="passenger"/>
    <trip id="326" depart="94.77" from="E4D4.80.00" to="A2A1" type="passenger"/>
    <trip id="327" depart="95.66" from="D1C1" to="A2B2.80.00" type="passenger"/>
    <trip id="328" depart="95.94" from="C0B0.80.00" to="B1B0.80.00" type="passenger"/>
    <trip id="329" depart="97.39" from="bottom3D0" to="A1A0" type="passenger"/>
    <trip id="330" depart="97.58" from="bottom1B0.80.00" to="D4D3" type="passenger"/>
    <trip id="331" depart="97.65" from="E4E3.80.00" to="D0D1.80.00" type="passenger"/>
    <trip id="332" depart="100.02" from="A4B4" to="D3D2.80.00" type="passenger"/>
    <trip id="333" depart="100.15" from="B2A2.80.00" to="bottom4E0.80.00" type="passenger"/>
    <trip id="334" depart="100.78" from="C2D2.80.00" to="top1B4.80.00" type="passenger"/>
    <trip id="335" depart="101.02" from="C3C4" to="bottom1B0.80.00" type="passenger"/>
    <trip id="336" depart="101.19" from="C1C2.80.00" to="A2A3.80.00" type="passenger"/>
    <trip id="337" depart="101.36" from="D1D0" to="C1B1.80.00" type="passenger"/>
    <trip id="338" depart="101.37" from="A2B2" to="A2A1" type="passenger"/>
    <trip id="339" depart="101.41" from="top4E4.80.00" to="A4A3.80.00" type="passenger"/>
    <trip id="340" depart="101.78" from="A1A0" to="D4E4.80.00" type="passenger"/>
    <trip id="341" depart="102.02" from="right0E0" to="B1A1.80.00" type="passenger"/>
    <trip id="342" depart="102.11" from="D2D3.80.00" to="B4A4" type="passenger"/>
    <trip id="343" depart="102.35" from="bottom0A0" to="A1A2" type="passenger"/>
    <trip id="344" depart="102.47" from="C1B1" to="A3left3" type="passenger"/>
    <trip id="345" depart="102.55" from="D4C4.80.00" to="top0A4.80.00" type="passenger"/>
    <trip id="346" depart="102.57" from="C3C2" to="E1right1" type="passenger"/>
    <trip id="347" depart="102.71" from="right3E3" to="C2C1.80.00" type="passenger"/>
    <trip id="348" depart="102.88" from="D3D4.80.00" to="C4B4" type="passenger"/>
    <trip id="349" depart="102.90" from="top2C4" to="E3E4" type="passenger"/>
    <trip id="350" depart="103.34" from="C2C3.80.00" to="E1E0.80.00" type="passenger"/>
    <trip id="351" depart="103.51" from="left0A0" to="C3C4.80.00" type="passenger"/>
    <trip id="352" depart="103.60" from="bottom1B0.80.00" to="left2A2.80.00" type="passenger"/>