<?xml version="1.0" encoding="UTF-8"?>

<!-- generated on 2023-04-26 16:56:44.512977 by randomTrips.py UNKNOWN
<configuration>
    <begin value="0"/>
    <end value="900"/>
    <insertion-rate value="8000.0"/>
    <net-file value="/home/franky3er/Documents/code/HieraGLight/scenarios/grid/1x1-500m/train/25-scenario/network.net.xml"/>
    <random value="True"/>
    <random-depart value="True"/>
    <route-file value="/home/franky3er/Documents/code/HieraGLight/scenarios/grid/1x1-500m/train/25-scenario/routes.rou.xml"/>
    <seed value="25"/>
    <output-trip-file value="/home/franky3er/Documents/code/HieraGLight/scenarios/grid/1x1-500m/train/25-scenario/trips.trips.xml"/>
    <vehicle-class value="passenger"/>
</configuration>
-->

<!-- generated on 2023-04-26 16:56:44 by Eclipse SUMO duarouter Version 1.16.0
<configuration xmlns:xsi="http://www.w3.org/2001/XMLSchema-instance" xsi:noNamespaceSchemaLocation="http://sumo.dlr.de/xsd/duarouterConfiguration.xsd">

    <input>
        <net-file value="/home/franky3er/Documents/code/HieraGLight/scenarios/grid/1x1-500m/train/25-scenario/network.net.xml"/>
        <route-files value="/home/franky3er/Documents/code/HieraGLight/scenarios/grid/1x1-500m/train/25-scenario/trips.trips.xml"/>
    </input>

    <output>
        <output-file value="/home/franky3er/Documents/code/HieraGLight/scenarios/grid/1x1-500m/train/25-scenario/routes.rou.xml"/>
        <alternatives-output value="NUL"/>
    </output>

    <time>
        <begin value="0"/>
        <end value="900"/>
    </time>

    <report>
        <no-warnings value="true"/>
        <ignore-errors value="true"/>
        <no-step-log value="true"/>
    </report>

</configuration>
-->

<routes xmlns:xsi="http://www.w3.org/2001/XMLSchema-instance" xsi:noNamespaceSchemaLocation="http://sumo.dlr.de/xsd/routes_file.xsd">
    <vType id="passenger" vClass="passenger"/>
    <vehicle id="1" type="passenger" depart="0.10">
        <route edges="left0A0.250.00 A0bottom0"/>
    </vehicle>
    <vehicle id="2" type="passenger" depart="0.55">
        <route edges="top0A0 top0A0.250.00 A0bottom0"/>
    </vehicle>
    <vehicle id="3" type="passenger" depart="1.20">
        <route edges="right0A0.250.00 A0bottom0"/>
    </vehicle>
    <vehicle id="4" type="passenger" depart="1.30">
        <route edges="right0A0 right0A0.250.00 A0top0"/>
    </vehicle>
    <vehicle id="6" type="passenger" depart="2.00">
        <route edges="right0A0.250.00 A0left0"/>
    </vehicle>
    <vehicle id="7" type="passenger" depart="2.60">
        <route edges="top0A0.250.00 A0bottom0"/>
    </vehicle>
    <vehicle id="13" type="passenger" depart="4.95">
        <route edges="left0A0 left0A0.250.00 A0right0"/>
    </vehicle>
    <vehicle id="14" type="passenger" depart="5.45">
        <route edges="top0A0 top0A0.250.00"/>
    </vehicle>
    <vehicle id="17" type="passenger" depart="6.10">
        <route edges="left0A0 left0A0.250.00 A0top0"/>
    </vehicle>
    <vehicle id="18" type="passenger" depart="7.15">
        <route edges="top0A0.250.00 A0right0"/>
    </vehicle>
    <vehicle id="19" type="passenger" depart="7.85">
        <route edges="top0A0 top0A0.250.00 A0bottom0"/>
    </vehicle>
    <vehicle id="22" type="passenger" depart="9.50">
        <route edges="right0A0.250.00 A0top0"/>
    </vehicle>
    <vehicle id="23" type="passenger" depart="9.75">
        <route edges="left0A0.250.00 A0top0"/>
    </vehicle>
    <vehicle id="24" type="passenger" depart="9.95">
        <route edges="left0A0 left0A0.250.00"/>
    </vehicle>
    <vehicle id="25" type="passenger" depart="10.60">
        <route edges="top0A0 top0A0.250.00 A0left0"/>
    </vehicle>
    <vehicle id="26" type="passenger" depart="10.80">
        <route edges="right0A0.250.00 A0top0"/>
    </vehicle>
    <vehicle id="33" type="passenger" depart="12.85">
        <route edges="bottom0A0 bottom0A0.250.00 A0left0"/>
    </vehicle>
    <vehicle id="35" type="passenger" depart="13.40">
        <route edges="left0A0 left0A0.250.00 A0bottom0"/>
    </vehicle>
    <vehicle id="36" type="passenger" depart="13.70">
        <route edges="left0A0.250.00"/>
    </vehicle>
    <vehicle id="37" type="passenger" depart="14.20">
        <route edges="right0A0 right0A0.250.00"/>
    </vehicle>
    <vehicle id="38" type="passenger" depart="14.25">
        <route edges="top0A0 top0A0.250.00"/>
    </vehicle>
    <vehicle id="40" type="passenger" depart="14.80">
        <route edges="top0A0.250.00 A0bottom0"/>
    </vehicle>
    <vehicle id="44" type="passenger" depart="15.35">
        <route edges="bottom0A0 bottom0A0.250.00 A0right0"/>
    </vehicle>
    <vehicle id="49" type="passenger" depart="16.10">
        <route edges="top0A0 top0A0.250.00 A0left0"/>
    </vehicle>
    <vehicle id="52" type="passenger" depart="18.15">
        <route edges="left0A0 left0A0.250.00"/>
    </vehicle>
    <vehicle id="53" type="passenger" depart="18.25">
        <route edges="top0A0.250.00 A0left0"/>
    </vehicle>
    <vehicle id="54" type="passenger" depart="19.00">
        <route edges="top0A0.250.00 A0bottom0"/>
    </vehicle>
    <vehicle id="55" type="passenger" depart="19.05">
        <route edges="right0A0.250.00 A0top0"/>
    </vehicle>
    <vehicle id="59" type="passenger" depart="19.45">
        <route edges="top0A0.250.00 A0left0"/>
    </vehicle>
    <vehicle id="63" type="passenger" depart="21.90">
        <route edges="top0A0 top0A0.250.00"/>
    </vehicle>
    <vehicle id="65" type="passenger" depart="22.80">
        <route edges="left0A0 left0A0.250.00 A0right0"/>
    </vehicle>
    <vehicle id="66" type="passenger" depart="22.95">
        <route edges="top0A0.250.00"/>
    </vehicle>
    <vehicle id="68" type="passenger" depart="23.30">
        <route edges="right0A0 right0A0.250.00"/>
    </vehicle>
    <vehicle id="70" type="passenger" depart="23.40">
        <route edges="right0A0 right0A0.250.00 A0bottom0"/>
    </vehicle>
    <vehicle id="71" type="passenger" depart="24.25">
        <route edges="right0A0 right0A0.250.00 A0top0"/>
    </vehicle>
    <vehicle id="72" type="passenger" depart="24.75">
        <route edges="left0A0.250.00"/>
    </vehicle>
    <vehicle id="74" type="passenger" depart="24.95">
        <route edges="top0A0.250.00 A0right0"/>
    </vehicle>
    <vehicle id="75" type="passenger" depart="25.20">
        <route edges="right0A0 right0A0.250.00 A0bottom0"/>
    </vehicle>
    <vehicle id="76" type="passenger" depart="25.35">
        <route edges="top0A0 top0A0.250.00 A0right0"/>
    </vehicle>
    <vehicle id="82" type="passenger" depart="27.90">
        <route edges="left0A0.250.00 A0top0"/>
    </vehicle>
    <vehicle id="83" type="passenger" depart="28.15">
        <route edges="right0A0 right0A0.250.00 A0bottom0"/>
    </vehicle>
    <vehicle id="84" type="passenger" depart="28.45">
        <route edges="left0A0 left0A0.250.00"/>
    </vehicle>
    <vehicle id="90" type="passenger" depart="33.90">
        <route edges="top0A0.250.00 A0bottom0"/>
    </vehicle>
    <vehicle id="91" type="passenger" depart="36.20">
        <route edges="top0A0 top0A0.250.00 A0right0"/>
    </vehicle>
    <vehicle id="93" type="passenger" depart="36.90">
        <route edges="right0A0 right0A0.250.00 A0bottom0"/>
    </vehicle>
    <vehicle id="94" type="passenger" depart="37.70">
        <route edges="top0A0 top0A0.250.00"/>
    </vehicle>
    <vehicle id="97" type="passenger" depart="38.85">
        <route edges="left0A0.250.00"/>
    </vehicle>
    <vehicle id="100" type="passenger" depart="39.70">
        <route edges="bottom0A0 bottom0A0.250.00"/>
    </vehicle>
    <vehicle id="101" type="passenger" depart="40.20">
        <route edges="top0A0 top0A0.250.00"/>
    </vehicle>
    <vehicle id="104" type="passenger" depart="40.85">
        <route edges="left0A0 left0A0.250.00 A0bottom0"/>
    </vehicle>
    <vehicle id="109" type="passenger" depart="43.25">
        <route edges="top0A0.250.00"/>
    </vehicle>
    <vehicle id="111" type="passenger" depart="44.20">
        <route edges="left0A0.250.00 A0top0"/>
    </vehicle>
    <vehicle id="112" type="passenger" depart="44.65">
        <route edges="right0A0.250.00 A0bottom0"/>
    </vehicle>
    <vehicle id="113" type="passenger" depart="44.95">
        <route edges="top0A0 top0A0.250.00 A0bottom0"/>
    </vehicle>
    <vehicle id="114" type="passenger" depart="46.60">
        <route edges="bottom0A0 bottom0A0.250.00 A0top0"/>
    </vehicle>
    <vehicle id="117" type="passenger" depart="47.90">
        <route edges="bottom0A0 bottom0A0.250.00 A0right0"/>
    </vehicle>
    <vehicle id="118" type="passenger" depart="48.90">
        <route edges="bottom0A0.250.00 A0right0"/>
    </vehicle>
    <vehicle id="119" type="passenger" depart="49.80">
        <route edges="bottom0A0.250.00 A0right0"/>
    </vehicle>
    <vehicle id="121" type="passenger" depart="50.70">
        <route edges="left0A0.250.00 A0bottom0"/>
    </vehicle>
    <vehicle id="123" type="passenger" depart="50.75">
        <route edges="bottom0A0 bottom0A0.250.00 A0top0"/>
    </vehicle>
    <vehicle id="126" type="passenger" depart="51.05">
        <route edges="bottom0A0 bottom0A0.250.00 A0left0"/>
    </vehicle>
    <vehicle id="127" type="passenger" depart="51.15">
        <route edges="right0A0 right0A0.250.00"/>
    </vehicle>
    <vehicle id="128" type="passenger" depart="51.45">
        <route edges="right0A0 right0A0.250.00"/>
    </vehicle>
    <vehicle id="130" type="passenger" depart="52.10">
        <route edges="top0A0 top0A0.250.00 A0right0"/>
    </vehicle>
    <vehicle id="131" type="passenger" depart="52.15">
        <route edges="right0A0.250.00 A0left0"/>
    </vehicle>
    <vehicle id="132" type="passenger" depart="52.25">
        <route edges="bottom0A0.250.00 A0top0"/>
    </vehicle>
    <vehicle id="136" type="passenger" depart="54.75">
        <route edges="left0A0.250.00"/>
    </vehicle>
    <vehicle id="137" type="passenger" depart="55.55">
        <route edges="bottom0A0.250.00 A0right0"/>
    </vehicle>
    <vehicle id="138" type="passenger" depart="56.85">
        <route edges="bottom0A0.250.00 A0top0"/>
    </vehicle>
    <vehicle id="139" type="passenger" depart="58.10">
        <route edges="top0A0.250.00 A0left0"/>
    </vehicle>
    <vehicle id="140" type="passenger" depart="58.80">
        <route edges="bottom0A0.250.00 A0right0"/>
    </vehicle>
    <vehicle id="141" type="passenger" depart="59.00">
        <route edges="left0A0 left0A0.250.00"/>
    </vehicle>
    <vehicle id="142" type="passenger" depart="59.80">
        <route edges="top0A0.250.00"/>
    </vehicle>
    <vehicle id="143" type="passenger" depart="60.30">
        <route edges="bottom0A0 bottom0A0.250.00"/>
    </vehicle>
    <vehicle id="146" type="passenger" depart="61.00">
        <route edges="right0A0 right0A0.250.00"/>
    </vehicle>
    <vehicle id="147" type="passenger" depart="61.10">
        <route edges="left0A0.250.00 A0right0"/>
    </vehicle>
    <vehicle id="150" type="passenger" depart="61.80">
        <route edges="left0A0.250.00 A0top0"/>
    </vehicle>
    <vehicle id="155" type="passenger" depart="63.90">
        <route edges="left0A0.250.00"/>
    </vehicle>
    <vehicle id="157" type="passenger" depart="65.75">
        <route edges="top0A0.250.00"/>
    </vehicle>
    <vehicle id="159" type="passenger" depart="67.10">
        <route edges="top0A0.250.00 A0left0"/>
    </vehicle>
    <vehicle id="160" type="passenger" depart="67.25">
        <route edges="left0A0.250.00"/>
    </vehicle>
    <vehicle id="164" type="passenger" depart="67.95">
        <route edges="top0A0 top0A0.250.00 A0bottom0"/>
    </vehicle>
    <vehicle id="166" type="passenger" depart="68.45">
        <route edges="bottom0A0.250.00 A0left0"/>
    </vehicle>
    <vehicle id="169" type="passenger" depart="69.75">
        <route edges="left0A0 left0A0.250.00 A0right0"/>
    </vehicle>
    <vehicle id="170" type="passenger" depart="70.55">
        <route edges="left0A0.250.00 A0bottom0"/>
    </vehicle>
    <vehicle id="174" type="passenger" depart="73.25">
        <route edges="top0A0.250.00 A0left0"/>
    </vehicle>
    <vehicle id="176" type="passenger" depart="75.20">
        <route edges="top0A0 top0A0.250.00 A0bottom0"/>
    </vehicle>
    <vehicle id="184" type="passenger" depart="77.15">
        <route edges="bottom0A0.250.00 A0left0"/>
    </vehicle>
    <vehicle id="186" type="passenger" depart="77.40">
        <route edges="right0A0.250.00 A0top0"/>
    </vehicle>
    <vehicle id="191" type="passenger" depart="81.00">
        <route edges="right0A0 right0A0.250.00 A0bottom0"/>
    </vehicle>
    <vehicle id="195" type="passenger" depart="82.75">
        <route edges="right0A0 right0A0.250.00 A0top0"/>
    </vehicle>
    <vehicle id="196" type="passenger" depart="83.35">
        <route edges="bottom0A0 bottom0A0.250.00"/>
    </vehicle>
    <vehicle id="199" type="passenger" depart="84.50">
        <route edges="right0A0.250.00 A0bottom0"/>
    </vehicle>
    <vehicle id="200" type="passenger" depart="84.60">
        <route edges="bottom0A0.250.00"/>
    </vehicle>
    <vehicle id="205" type="passenger" depart="87.95">
        <route edges="top0A0 top0A0.250.00 A0bottom0"/>
    </vehicle>
    <vehicle id="206" type="passenger" depart="88.00">
        <route edges="top0A0 top0A0.250.00 A0bottom0"/>
    </vehicle>
    <vehicle id="207" type="passenger" depart="88.30">
        <route edges="left0A0 left0A0.250.00 A0top0"/>
    </vehicle>
    <vehicle id="210" type="passenger" depart="88.95">
        <route edges="right0A0 right0A0.250.00"/>
    </vehicle>
    <vehicle id="211" type="passenger" depart="91.15">
        <route edges="top0A0 top0A0.250.00 A0right0"/>
    </vehicle>
    <vehicle id="212" type="passenger" depart="91.35">
        <route edges="left0A0.250.00 A0bottom0"/>
    </vehicle>
    <vehicle id="213" type="passenger" depart="92.00">
        <route edges="bottom0A0 bottom0A0.250.00 A0right0"/>
    </vehicle>
    <vehicle id="214" type="passenger" depart="93.30">
        <route edges="bottom0A0 bottom0A0.250.00"/>
    </vehicle>
    <vehicle id="215" type="passenger" depart="93.35">
        <route edges="bottom0A0 bottom0A0.250.00"/>
    </vehicle>
    <vehicle id="216" type="passenger" depart="94.00">
        <route edges="bottom0A0 bottom0A0.250.00 A0top0"/>
    </vehicle>
    <vehicle id="217" type="passenger" depart="95.95">
        <route edges="top0A0 top0A0.250.00 A0bottom0"/>
    </vehicle>
    <vehicle id="218" type="passenger" depart="96.40">
        <route edges="right0A0.250.00 A0bottom0"/>
    </vehicle>
    <vehicle id="221" type="passenger" depart="98.20">
        <route edges="top0A0.250.00 A0left0"/>
    </vehicle>
    <vehicle id="225" type="passenger" depart="101.90">
        <route edges="bottom0A0.250.00 A0top0"/>
    </vehicle>
    <vehicle id="226" type="passenger" depart="102.10">
        <route edges="right0A0 right0A0.250.00 A0left0"/>
    </vehicle>
    <vehicle id="228" type="passenger" depart="103.45">
        <route edges="left0A0.250.00 A0bottom0"/>
    </vehicle>
    <vehicle id="229" type="passenger" depart="103.90">
        <route edges="right0A0 right0A0.250.00"/>
    </vehicle>
    <vehicle id="230" type="passenger" depart="104.05">
        <route edges="top0A0.250.00 A0right0"/>
    </vehicle>
    <vehicle id="234" type="passenger" depart="105.20">
        <route edges="top0A0.250.00 A0right0"/>
    </vehicle>
    <vehicle id="235" type="passenger" depart="105.45">
        <route edges="right0A0.250.00 A0top0"/>
    </vehicle>
    <vehicle id="237" type="passenger" depart="106.55">
        <route edges="bottom0A0 bottom0A0.250.00"/>
    </vehicle>
    <vehicle id="239" type="passenger" depart="107.10">
        <route edges="right0A0.250.00 A0top0"/>
    </vehicle>
    <vehicle id="241" type="passenger" depart="108.70">
        <route edges="left0A0.250.00 A0right0"/>
    </vehicle>
    <vehicle id="242" type="passenger" depart="109.05">
        <route edges="bottom0A0 bottom0A0.250.00"/>
    </vehicle>
    <vehicle id="243" type="passenger" depart="109.10">
        <route edges="left0A0 left0A0.250.00 A0bottom0"/>
    </vehicle>
    <vehicle id="245" type="passenger" depart="111.50">
        <route edges="right0A0.250.00 A0left0"/>
    </vehicle>
    <vehicle id="246" type="passenger" depart="112.05">
        <route edges="right0A0.250.00 A0left0"/>
    </vehicle>
    <vehicle id="249" type="passenger" depart="112.75">
        <route edges="bottom0A0.250.00"/>
    </vehicle>
    <vehicle id="253" type="passenger" depart="113.55">
        <route edges="top0A0 top0A0.250.00 A0left0"/>
    </vehicle>
    <vehicle id="254" type="passenger" depart="113.65">
        <route edges="left0A0.250.00 A0bottom0"/>
    </vehicle>
    <vehicle id="256" type="passenger" depart="115.00">
        <route edges="left0A0 left0A0.250.00 A0top0"/>
    </vehicle>
    <vehicle id="257" type="passenger" depart="116.45">
        <route edges="top0A0 top0A0.250.00 A0right0"/>
    </vehicle>
    <vehicle id="260" type="passenger" depart="116.95">
        <route edges="top0A0.250.00 A0bottom0"/>
    </vehicle>
    <vehicle id="261" type="passenger" depart="117.45">
        <route edges="right0A0.250.00"/>
    </vehicle>
    <vehicle id="262" type="passenger" depart="117.90">
        <route edges="right0A0 right0A0.250.00 A0top0"/>
    </vehicle>
    <vehicle id="264" type="passenger" depart="120.00">
        <route edges="top0A0 top0A0.250.00"/>
    </vehicle>
    <vehicle id="266" type="passenger" depart="121.20">
        <route edges="top0A0 top0A0.250.00 A0bottom0"/>
    </vehicle>
    <vehicle id="270" type="passenger" depart="124.05">
        <route edges="top0A0 top0A0.250.00 A0left0"/>
    </vehicle>
    <vehicle id="272" type="passenger" depart="124.75">
        <route edges="top0A0.250.00 A0right0"/>
    </vehicle>
    <vehicle id="274" type="passenger" depart="125.35">
        <route edges="right0A0 right0A0.250.00"/>
    </vehicle>
    <vehicle id="275" type="passenger" depart="125.40">
        <route edges="right0A0.250.00"/>
    </vehicle>
    <vehicle id="278" type="passenger" depart="126.70">
        <route edges="bottom0A0 bottom0A0.250.00 A0left0"/>
    </vehicle>
    <vehicle id="280" type="passenger" depart="128.80">
        <route edges="top0A0 top0A0.250.00 A0left0"/>
    </vehicle>
    <vehicle id="284" type="passenger" depart="129.50">
        <route edges="left0A0 left0A0.250.00 A0bottom0"/>
    </vehicle>
    <vehicle id="286" type="passenger" depart="131.05">
        <route edges="left0A0.250.00 A0bottom0"/>
    </vehicle>
    <vehicle id="287" type="passenger" depart="131.70">
        <route edges="top0A0.250.00 A0right0"/>
    </vehicle>
    <vehicle id="289" type="passenger" depart="132.30">
        <route edges="left0A0 left0A0.250.00 A0bottom0"/>
    </vehicle>
    <vehicle id="290" type="passenger" depart="132.95">
        <route edges="bottom0A0 bottom0A0.250.00"/>
    </vehicle>
    <vehicle id="291" type="passenger" depart="133.25">
        <route edges="right0A0 right0A0.250.00 A0left0"/>
    </vehicle>
    <vehicle id="292" type="passenger" depart="133.55">
        <route edges="right0A0.250.00 A0bottom0"/>
    </vehicle>
    <vehicle id="294" type="passenger" depart="134.25">
        <route edges="top0A0 top0A0.250.00"/>
    </vehicle>
    <vehicle id="295" type="passenger" depart="134.45">
        <route edges="right0A0 right0A0.250.00"/>
    </vehicle>
    <vehicle id="297" type="passenger" depart="134.65">
        <route edges="left0A0.250.00 A0top0"/>
    </vehicle>
    <vehicle id="298" type="passenger" depart="135.40">
        <route edges="left0A0 left0A0.250.00 A0right0"/>
    </vehicle>
    <vehicle id="299" type="passenger" depart="135.60">
        <route edges="right0A0 right0A0.250.00 A0bottom0"/>
    </vehicle>
    <vehicle id="300" type="passenger" depart="135.80">
        <route edges="right0A0.250.00 A0left0"/>
    </vehicle>
    <vehicle id="302" type="passenger" depart="136.65">
        <route edges="top0A0 top0A0.250.00"/>
    </vehicle>
    <vehicle id="310" type="passenger" depart="140.30">
        <route edges="right0A0 right0A0.250.00 A0left0"/>
    </vehicle>
    <vehicle id="312" type="passenger" depart="141.45">
        <route edges="left0A0 left0A0.250.00"/>
    </vehicle>
    <vehicle id="316" type="passenger" depart="143.60">
        <route edges="left0A0 left0A0.250.00 A0top0"/>
    </vehicle>
    <vehicle id="317" type="passenger" depart="144.10">
        <route edges="top0A0.250.00 A0bottom0"/>
    </vehicle>
    <vehicle id="318" type="passenger" depart="145.20">
        <route edges="top0A0.250.00 A0right0"/>
    </vehicle>
    <vehicle id="320" type="passenger" depart="145.80">
        <route edges="top0A0 top0A0.250.00 A0bottom0"/>
    </vehicle>
    <vehicle id="321" type="passenger" depart="146.00">
        <route edges="top0A0 top0A0.250.00 A0right0"/>
    </vehicle>
    <vehicle id="322" type="passenger" depart="146.65">
        <route edges="top0A0.250.00 A0bottom0"/>
    </vehicle>
    <vehicle id="323" type="passenger" depart="147.00">
        <route edges="left0A0.250.00 A0top0"/>
    </vehicle>
    <vehicle id="326" type="passenger" depart="148.95">
        <route edges="left0A0 left0A0.250.00 A0right0"/>
    </vehicle>
    <vehicle id="327" type="passenger" depart="148.95">
        <route edges="right0A0.250.00 A0top0"/>
    </vehicle>
    <vehicle id="328" type="passenger" depart="149.30">
        <route edges="right0A0 right0A0.250.00"/>
    </vehicle>
    <vehicle id="329" type="passenger" depart="149.60">
        <route edges="bottom0A0 bottom0A0.250.00 A0right0"/>
    </vehicle>
    <vehicle id="331" type="passenger" depart="150.15">
        <route edges="left0A0.250.00 A0right0"/>
    </vehicle>
    <vehicle id="333" type="passenger" depart="151.30">
        <route edges="right0A0 right0A0.250.00 A0left0"/>
    </vehicle>
    <vehicle id="340" type="passenger" depart="153.30">
        <route edges="bottom0A0.250.00 A0right0"/>
    </vehicle>
    <vehicle id="343" type="passenger" depart="154.15">
        <route edges="left0A0.250.00"/>
    </vehicle>
    <vehicle id="344" type="passenger" depart="154.20">
        <route edges="left0A0 left0A0.250.00 A0top0"/>
    </vehicle>
    <vehicle id="346" type="passenger" depart="154.55">
        <route edges="top0A0 top0A0.250.00"/>
    </vehicle>
    <vehicle id="348" type="passenger" depart="156.10">
        <route edges="bottom0A0 bottom0A0.250.00 A0right0"/>
    </vehicle>
    <vehicle id="351" type="passenger" depart="158.20">
        <route edges="bottom0A0.250.00 A0right0"/>
    </vehicle>
    <vehicle id="352" type="passenger" depart="158.25">
        <route edges="left0A0 left0A0.250.00 A0top0"/>
    </vehicle>
    <vehicle id="353" type="passenger" depart="158.30">
        <route edges="right0A0 right0A0.250.00 A0top0"/>
    </vehicle>
    <vehicle id="354" type="passenger" depart="158.40">
        <route edges="top0A0.250.00 A0bottom0"/>
    </vehicle>
    <vehicle id="357" type="passenger" depart="158.95">
        <route edges="left0A0.250.00 A0right0"/>
    </vehicle>
    <vehicle id="358" type="passenger" depart="158.95">
        <route edges="right0A0.250.00 A0bottom0"/>
    </vehicle>
    <vehicle id="362" type="passenger" depart="159.90">
        <route edges="right0A0.250.00"/>
    </vehicle>
    <vehicle id="364" type="passenger" depart="161.05">
        <route edges="right0A0 right0A0.250.00 A0top0"/>
    </vehicle>
    <vehicle id="365" type="passenger" depart="161.35">
        <route edges="left0A0 left0A0.250.00"/>
    </vehicle>
    <vehicle id="366" type="passenger" depart="161.45">
        <route edges="left0A0 left0A0.250.00"/>
    </vehicle>
    <vehicle id="369" type="passenger" depart="162.25">
        <route edges="right0A0 right0A0.250.00 A0left0"/>
    </vehicle>
    <vehicle id="370" type="passenger" depart="163.15">
        <route edges="left0A0.250.00 A0top0"/>
    </vehicle>
    <vehicle id="371" type="passenger" depart="163.40">
        <route edges="left0A0 left0A0.250.00 A0top0"/>
    </vehicle>
    <vehicle id="374" type="passenger" depart="164.25">
        <route edges="right0A0.250.00"/>
    </vehicle>
    <vehicle id="375" type="passenger" depart="164.35">
        <route edges="bottom0A0 bottom0A0.250.00 A0top0"/>
    </vehicle>
    <vehicle id="376" type="passenger" depart="165.05">
        <route edges="right0A0.250.00 A0left0"/>
    </vehicle>
    <vehicle id="377" type="passenger" depart="165.05">
        <route edges="top0A0 top0A0.250.00"/>
    </vehicle>
    <vehicle id="379" type="passenger" depart="165.80">
        <route edges="left0A0.250.00"/>
    </vehicle>
    <vehicle id="380" type="passenger" depart="166.65">
        <route edges="left0A0 left0A0.250.00 A0bottom0"/>
    </vehicle>
    <vehicle id="382" type="passenger" depart="166.85">
        <route edges="left0A0.250.00 A0bottom0"/>
    </vehicle>
    <vehicle id="383" type="passenger" depart="166.95">
        <route edges="top0A0 top0A0.250.00 A0right0"/>
    </vehicle>
    <vehicle id="384" type="passenger" depart="166.95">
        <route edges="left0A0 left0A0.250.00 A0right0"/>
    </vehicle>
    <vehicle id="386" type="passenger" depart="168.20">
        <route edges="left0A0.250.00 A0bottom0"/>
    </vehicle>
    <vehicle id="388" type="passenger" depart="168.70">
        <route edges="bottom0A0 bottom0A0.250.00 A0top0"/>
    </vehicle>
    <vehicle id="391" type="passenger" depart="169.50">
        <route edges="top0A0.250.00 A0bottom0"/>
    </vehicle>
    <vehicle id="392" type="passenger" depart="172.05">
        <route edges="bottom0A0.250.00"/>
    </vehicle>
    <vehicle id="395" type="passenger" depart="174.15">
        <route edges="bottom0A0 bottom0A0.250.00 A0left0"/>
    </vehicle>
    <vehicle id="396" type="passenger" depart="174.65">
        <route edges="left0A0 left0A0.250.00 A0bottom0"/>
    </vehicle>
    <vehicle id="397" type="passenger" depart="174.90">
        <route edges="left0A0.250.00"/>
    </vehicle>
    <vehicle id="398" type="passenger" depart="176.00">
        <route edges="left0A0.250.00 A0right0"/>
    </vehicle>
    <vehicle id="399" type="passenger" depart="176.75">
        <route edges="right0A0 right0A0.250.00 A0left0"/>
    </vehicle>
    <vehicle id="400" type="passenger" depart="177.20">
        <route edges="right0A0.250.00"/>
    </vehicle>
    <vehicle id="402" type="passenger" depart="177.30">
        <route edges="bottom0A0.250.00 A0left0"/>
    </vehicle>
    <vehicle id="403" type="passenger" depart="177.95">
        <route edges="right0A0 right0A0.250.00 A0left0"/>
    </vehicle>
    <vehicle id="404" type="passenger" depart="178.50">
        <route edges="left0A0 left0A0.250.00 A0bottom0"/>
    </vehicle>
    <vehicle id="406" type="passenger" depart="179.55">
        <route edges="right0A0 right0A0.250.00 A0bottom0"/>
    </vehicle>
    <vehicle id="407" type="passenger" depart="179.55">
        <route edges="top0A0.250.00 A0bottom0"/>
    </vehicle>
    <vehicle id="408" type="passenger" depart="179.70">
        <route edges="top0A0 top0A0.250.00 A0left0"/>
    </vehicle>
    <vehicle id="410" type="passenger" depart="180.15">
        <route edges="top0A0.250.00 A0right0"/>
    </vehicle>
    <vehicle id="411" type="passenger" depart="180.65">
        <route edges="top0A0.250.00 A0right0"/>
    </vehicle>
    <vehicle id="412" type="passenger" depart="181.15">
        <route edges="top0A0 top0A0.250.00"/>
    </vehicle>
    <vehicle id="420" type="passenger" depart="184.80">
        <route edges="right0A0.250.00"/>
    </vehicle>
    <vehicle id="421" type="passenger" depart="185.10">
        <route edges="right0A0.250.00 A0top0"/>
    </vehicle>
    <vehicle id="422" type="passenger" depart="185.15">
        <route edges="left0A0 left0A0.250.00 A0bottom0"/>
    </vehicle>
    <vehicle id="425" type="passenger" depart="186.85">
        <route edges="right0A0 right0A0.250.00 A0bottom0"/>
    </vehicle>
    <vehicle id="427" type="passenger" depart="187.25">
        <route edges="bottom0A0.250.00 A0top0"/>
    </vehicle>
    <vehicle id="429" type="passenger" depart="187.70">
        <route edges="left0A0 left0A0.250.00 A0right0"/>
    </vehicle>
    <vehicle id="430" type="passenger" depart="189.20">
        <route edges="top0A0 top0A0.250.00 A0bottom0"/>
    </vehicle>
    <vehicle id="432" type="passenger" depart="190.00">
        <route edges="left0A0 left0A0.250.00"/>
    </vehicle>
    <vehicle id="437" type="passenger" depart="192.05">
        <route edges="top0A0.250.00 A0left0"/>
    </vehicle>
    <vehicle id="440" type="passenger" depart="193.15">
        <route edges="right0A0.250.00 A0left0"/>
    </vehicle>
    <vehicle id="445" type="passenger" depart="195.35">
        <route edges="right0A0.250.00 A0bottom0"/>
    </vehicle>
    <vehicle id="448" type="passenger" depart="195.50">
        <route edges="top0A0.250.00 A0left0"/>
    </vehicle>
    <vehicle id="450" type="passenger" depart="195.90">
        <route edges="top0A0 top0A0.250.00"/>
    </vehicle>
    <vehicle id="455" type="passenger" depart="197.85">
        <route edges="bottom0A0.250.00 A0top0"/>
    </vehicle>
    <vehicle id="457" type="passenger" depart="200.05">
        <route edges="bottom0A0 bottom0A0.250.00"/>
    </vehicle>
    <vehicle id="458" type="passenger" depart="200.25">
        <route edges="bottom0A0 bottom0A0.250.00"/>
    </vehicle>
    <vehicle id="459" type="passenger" depart="201.75">
        <route edges="right0A0 right0A0.250.00 A0bottom0"/>
    </vehicle>
    <vehicle id="460" type="passenger" depart="202.05">
        <route edges="left0A0 left0A0.250.00 A0right0"/>
    </vehicle>
    <vehicle id="465" type="passenger" depart="203.50">
        <route edges="top0A0 top0A0.250.00 A0bottom0"/>
    </vehicle>
    <vehicle id="466" type="passenger" depart="203.50">