<?xml version="1.0" encoding="UTF-8"?>

<!-- generated on 2023-02-12 18:47:01.432278 by randomTrips.py UNKNOWN
<configuration>
    <begin value="0"/>
    <end value="900"/>
    <insertion-rate value="12500.0"/>
    <net-file value="/home/franky3er/Documents/code/HieraGLight/scenarios/grid/5x5-150m/train/70-scenario/network.net.xml"/>
    <random value="True"/>
    <random-depart value="True"/>
    <route-file value="/home/franky3er/Documents/code/HieraGLight/scenarios/grid/5x5-150m/train/70-scenario/routes.rou.xml"/>
    <seed value="70"/>
    <output-trip-file value="/home/franky3er/Documents/code/HieraGLight/scenarios/grid/5x5-150m/train/70-scenario/trips.trips.xml"/>
    <vehicle-class value="passenger"/>
</configuration>
-->

<routes xmlns:xsi="http://www.w3.org/2001/XMLSchema-instance" xsi:noNamespaceSchemaLocation="http://sumo.dlr.de/xsd/routes_file.xsd">
    <vType id="passenger" vClass="passenger"/>
    <trip id="0" depart="0.12" from="E2D2" to="B2B1" type="passenger"/>
    <trip id="1" depart="0.17" from="A1B1" to="C2C1" type="passenger"/>
    <trip id="2" depart="0.56" from="B4C4.80.00" to="D1D2.80.00" type="passenger"/>
    <trip id="3" depart="0.72" from="A3A2.80.00" to="C2C3" type="passenger"/>
    <trip id="4" depart="0.98" from="D4C4" to="E2D2" type="passenger"/>
    <trip id="5" depart="1.39" from="C2C1" to="B1A1" type="passenger"/>
    <trip id="6" depart="1.64" from="left2A2" to="B1B2" type="passenger"/>
    <trip id="7" depart="1.67" from="E0E1" to="A1A0" type="passenger"/>
    <trip id="8" depart="1.76" from="E3D3" to="E0E1" type="passenger"/>
    <trip id="9" depart="1.86" from="C4C3" to="B2C2.80.00" type="passenger"/>
    <trip id="10" depart="1.91" from="B0B1.80.00" to="B0C0.80.00" type="passenger"/>
    <trip id="11" depart="2.91" from="B4A4" to="A3A4.80.00" type="passenger"/>
    <trip id="12" depart="3.22" from="D4D3" to="A1A0" type="passenger"/>
    <trip id="13" depart="3.31" from="B2C2.80.00" to="C2C3" type="passenger"/>
    <trip id="14" depart="3.55" from="C4C3.80.00" to="C3C4.80.00" type="passenger"/>
    <trip id="15" depart="4.31" from="C3C4" to="D4top3" type="passenger"/>
    <trip id="16" depart="4.37" from="B3C3" to="C3D3.80.00" type="passenger"/>
    <trip id="17" depart="5.31" from="D1D0.80.00" to="B4A4" type="passenger"/>
    <trip id="18" depart="5.89" from="top3D4" to="B2B1.80.00" type="passenger"/>
    <trip id="19" depart="6.34" from="C3C2" to="C3D3" type="passenger"/>
    <trip id="20" depart="6.38" from="C4D4.80.00" to="D1C1" type="passenger"/>
    <trip id="21" depart="7.32" from="E0E1" to="top2C4.80.00" type="passenger"/>
    <trip id="22" depart="7.36" from="B2A2.80.00" to="C3C2.80.00" type="passenger"/>
    <trip id="23" depart="7.60" from="D2D3" to="C3C4" type="passenger"/>
    <trip id="24" depart="7.66" from="D2E2" to="E3E4.80.00" type="passenger"/>
    <trip id="25" depart="7.86" from="E3E2.80.00" to="A0B0" type="passenger"/>
    <trip id="26" depart="8.31" from="D1D2" to="A2A1.80.00" type="passenger"/>
    <trip id="27" depart="8.31" from="B1B2" to="B4top1" type="passenger"/>
    <trip id="28" depart="8.34" from="left3A3.80.00" to="E4D4" type="passenger"/>
    <trip id="29" depart="8.58" from="D3D2.80.00" to="B2B1.80.00" type="passenger"/>
    <trip id="30" depart="8.65" from="C2D2" to="C3B3" type="passenger"/>
    <trip id="31" depart="8.69" from="C0B0" to="E4D4.80.00" type="passenger"/>
    <trip id="32" depart="8.87" from="B4C4" to="D0C0.80.00" type="passenger"/>
    <trip id="33" depart="9.30" from="C0C1.80.00" to="D3C3.80.00" type="passenger"/>
    <trip id="34" depart="9.92" from="A3A2.80.00" to="A2B2.80.00" type="passenger"/>
    <trip id="35" depart="10.12" from="D1D0" to="D4D3.80.00" type="passenger"/>
    <trip id="36" depart="10.34" from="E4E3" to="B0bottom1" type="passenger"/>
    <trip id="37" depart="10.90" from="A0B0" to="C4top2" type="passenger"/>
    <trip id="38" depart="11.09" from="B0B1" to="top3D4.80.00" type="passenger"/>
    <trip id="39" depart="11.21" from="E1D1.80.00" to="B0bottom1" type="passenger"/>
    <trip id="40" depart="11.59" from="A4A3.80.00" to="B2B1.80.00" type="passenger"/>
    <trip id="41" depart="12.02" from="E0E1.80.00" to="right4E4.80.00" type="passenger"/>
    <trip id="42" depart="12.10" from="right2E2" to="E2D2" type="passenger"/>
    <trip id="43" depart="12.46" from="E4E3" to="E1D1.80.00" type="passenger"/>
    <trip id="44" depart="12.48" from="E2E3" to="top3D4.80.00" type="passenger"/>
    <trip id="45" depart="12.54" from="C1D1" to="E4E3" type="passenger"/>
    <trip id="46" depart="12.95" from="A4A3.80.00" to="B4A4.80.00" type="passenger"/>
    <trip id="47" depart="13.00" from="left4A4" to="C4B4" type="passenger"/>
    <trip id="48" depart="13.04" from="right2E2.80.00" to="C2C3.80.00" type="passenger"/>
    <trip id="49" depart="13.34" from="C2C1.80.00" to="A3A2.80.00" type="passenger"/>
    <trip id="50" depart="13.40" from="E1E2.80.00" to="E4E3.80.00" type="passenger"/>
    <trip id="51" depart="13.64" from="C0D0.80.00" to="A2A3" type="passenger"/>
    <trip id="52" depart="13.73" from="C1D1" to="C1C0" type="passenger"/>
    <trip id="53" depart="13.87" from="left1A1.80.00" to="E1right1" type="passenger"/>
    <trip id="54" depart="14.02" from="D3C3.80.00" to="E3E4.80.00" type="passenger"/>
    <trip id="55" depart="14.16" from="D3D4" to="A1B1" type="passenger"/>
    <trip id="56" depart="14.68" from="D2D1.80.00" to="D4C4" type="passenger"/>
    <trip id="57" depart="15.14" from="E2E1" to="B1B0" type="passenger"/>
    <trip id="58" depart="15.54" from="B2B1.80.00" to="D3D2" type="passenger"/>
    <trip id="59" depart="16.90" from="bottom0A0.80.00" to="C3B3.80.00" type="passenger"/>
    <trip id="60" depart="17.02" from="E0D0" to="left3A3.80.00" type="passenger"/>
    <trip id="61" depart="17.50" from="E1E0" to="A0A1.80.00" type="passenger"/>
    <trip id="62" depart="17.74" from="bottom0A0" to="E2E3.80.00" type="passenger"/>
    <trip id="63" depart="17.78" from="left1A1" to="D2D1" type="passenger"/>
    <trip id="64" depart="18.08" from="B1A1" to="top4E4.80.00" type="passenger"/>
    <trip id="65" depart="18.14" from="E3E2" to="B1B2.80.00" type="passenger"/>
    <trip id="66" depart="18.38" from="bottom4E0" to="A3B3" type="passenger"/>
    <trip id="67" depart="18.48" from="A4B4.80.00" to="B4B3" type="passenger"/>
    <trip id="68" depart="18.84" from="left3A3.80.00" to="D2D1.80.00" type="passenger"/>
    <trip id="69" depart="20.61" from="C2B2" to="E1E2.80.00" type="passenger"/>
    <trip id="70" depart="20.65" from="bottom4E0.80.00" to="B0C0" type="passenger"/>
    <trip id="71" depart="20.71" from="C3C4" to="E1right1" type="passenger"/>
    <trip id="72" depart="20.82" from="B2B3.80.00" to="E0D0.80.00" type="passenger"/>
    <trip id="73" depart="21.36" from="B0B1.80.00" to="E4right4" type="passenger"/>
    <trip id="74" depart="21.46" from="bottom2C0.80.00" to="right4E4.80.00" type="passenger"/>
    <trip id="75" depart="21.64" from="A2B2" to="D4C4" type="passenger"/>
    <trip id="76" depart="21.86" from="D0C0.80.00" to="D4E4" type="passenger"/>
    <trip id="77" depart="21.86" from="C0D0" to="D1E1" type="passenger"/>
    <trip id="78" depart="22.16" from="top3D4" to="D2D1" type="passenger"/>
    <trip id="79" depart="22.76" from="left2A2" to="E4E3.80.00" type="passenger"/>
    <trip id="80" depart="22.96" from="B3B2" to="B2A2.80.00" type="passenger"/>
    <trip id="81" depart="23.03" from="B3C3" to="D4D3.80.00" type="passenger"/>
    <trip id="82" depart="23.06" from="top4E4" to="E2E1" type="passenger"/>
    <trip id="83" depart="23.35" from="B1B2" to="E0bottom4" type="passenger"/>
    <trip id="84" depart="23.51" from="left2A2" to="A1A2.80.00" type="passenger"/>
    <trip id="85" depart="23.57" from="right0E0.80.00" to="A3A2.80.00" type="passenger"/>
    <trip id="86" depart="24.03" from="E0E1" to="E1E2" type="passenger"/>
    <trip id="87" depart="24.35" from="B4A4" to="C4D4.80.00" type="passenger"/>
    <trip id="88" depart="24.52" from="E3D3.80.00" to="E3E4" type="passenger"/>
    <trip id="89" depart="25.12" from="right1E1" to="B3C3.80.00" type="passenger"/>
    <trip id="90" depart="25.30" from="C4C3.80.00" to="C1D1" type="passenger"/>
    <trip id="91" depart="25.49" from="D1E1" to="E0D0" type="passenger"/>
    <trip id="92" depart="25.89" from="D3D2" to="D1E1.80.00" type="passenger"/>
    <trip id="93" depart="25.89" from="E4D4.80.00" to="D0C0.80.00" type="passenger"/>
    <trip id="94" depart="26.25" from="B2B1" to="bottom1B0.80.00" type="passenger"/>
    <trip id="95" depart="26.47" from="A3A2.80.00" to="D2D3.80.00" type="passenger"/>
    <trip id="96" depart="27.00" from="C0B0" to="E4E3" type="passenger"/>
    <trip id="97" depart="27.22" from="top3D4" to="E2E1.80.00" type="passenger"/>
    <trip id="98" depart="27.28" from="A4B4.80.00" to="A3A4.80.00" type="passenger"/>
    <trip id="99" depart="27.74" from="E4E3" to="D2D1.80.00" type="passenger"/>
    <trip id="100" depart="27.88" from="left1A1.80.00" to="D3E3.80.00" type="passenger"/>
    <trip id="101" depart="27.90" from="top2C4" to="E3right3" type="passenger"/>
    <trip id="102" depart="27.92" from="B4A4.80.00" to="E1E2.80.00" type="passenger"/>
    <trip id="103" depart="27.94" from="top1B4.80.00" to="left3A3.80.00" type="passenger"/>
    <trip id="104" depart="28.56" from="C3B3.80.00" to="C2C3.80.00" type="passenger"/>
    <trip id="105" depart="28.66" from="B1B0" to="A1A0.80.00" type="passenger"/>
    <trip id="106" depart="29.38" from="D4D3" to="C3B3" type="passenger"/>
    <trip id="107" depart="29.46" from="B2B3.80.00" to="right1E1.80.00" type="passenger"/>
    <trip id="108" depart="29.51" from="A2A1.80.00" to="B1B0" type="passenger"/>
    <trip id="109" depart="29.74" from="C3D3.80.00" to="B2A2" type="passenger"/>
    <trip id="110" depart="30.03" from="C4B4.80.00" to="A2B2" type="passenger"/>
    <trip id="111" depart="30.26" from="E0D0" to="D0D1" type="passenger"/>
    <trip id="112" depart="30.57" from="B3B2.80.00" to="B3B4.80.00" type="passenger"/>
    <trip id="113" depart="30.68" from="E3E2.80.00" to="A2B2.80.00" type="passenger"/>
    <trip id="114" depart="30.70" from="A2B2.80.00" to="B1A1.80.00" type="passenger"/>
    <trip id="115" depart="30.78" from="B0C0" to="left1A1.80.00" type="passenger"/>
    <trip id="116" depart="30.83" from="D1E1.80.00" to="C1C2" type="passenger"/>
    <trip id="117" depart="31.33" from="C0B0" to="D3C3.80.00" type="passenger"/>
    <trip id="118" depart="31.46" from="top3D4" to="E4E3.80.00" type="passenger"/>
    <trip id="119" depart="31.76" from="E2E1.80.00" to="E2E3" type="passenger"/>
    <trip id="120" depart="32.12" from="left3A3.80.00" to="E0D0.80.00" type="passenger"/>
    <trip id="121" depart="32.30" from="A0A1" to="E1D1.80.00" type="passenger"/>
    <trip id="122" depart="32.36" from="top2C4" to="B0A0.80.00" type="passenger"/>
    <trip id="123" depart="32.51" from="D3D4" to="bottom0A0.80.00" type="passenger"/>
    <trip id="124" depart="33.02" from="right4E4.80.00" to="bottom3D0.80.00" type="passenger"/>
    <trip id="125" depart="33.42" from="A2B2.80.00" to="C2D2" type="passenger"/>
    <trip id="126" depart="34.28" from="bottom3D0" to="bottom3D0.80.00" type="passenger"/>
    <trip id="127" depart="34.77" from="left0A0" to="B3C3" type="passenger"/>
    <trip id="128" depart="35.14" from="D3D2.80.00" to="C0D0.80.00" type="passenger"/>
    <trip id="129" depart="35.54" from="A1A2.80.00" to="A3left3" type="passenger"/>
    <trip id="130" depart="35.73" from="B3A3.80.00" to="D2C2.80.00" type="passenger"/>
    <trip id="131" depart="36.18" from="A2A3.80.00" to="left2A2.80.00" type="passenger"/>
    <trip id="132" depart="36.21" from="left2A2" to="C3B3" type="passenger"/>
    <trip id="133" depart="37.61" from="A0A1.80.00" to="D4E4.80.00" type="passenger"/>
    <trip id="134" depart="37.65" from="B2B1" to="C4D4" type="passenger"/>
    <trip id="135" depart="38.18" from="D4E4.80.00" to="E4D4.80.00" type="passenger"/>
    <trip id="136" depart="38.56" from="B4C4" to="A0A1" type="passenger"/>
    <trip id="137" depart="38.62" from="B2B1.80.00" to="C0D0" type="passenger"/>
    <trip id="138" depart="38.66" from="A3A4.80.00" to="bottom2C0.80.00" type="passenger"/>
    <trip id="139" depart="38.83" from="D4C4" to="C1D1" type="passenger"/>
    <trip id="140" depart="39.08" from="E2E1.80.00" to="B2B3.80.00" type="passenger"/>
    <trip id="141" depart="39.16" from="bottom4E0" to="top3D4.80.00" type="passenger"/>
    <trip id="142" depart="39.74" from="B1B2.80.00" to="A2A3" type="passenger"/>
    <trip id="143" depart="39.82" from="C3C2" to="right3E3.80.00" type="passenger"/>
    <trip id="144" depart="40.01" from="right3E3" to="E3E2.80.00" type="passenger"/>
    <trip id="145" depart="40.01" from="E1E0" to="E2E1.80.00" type="passenger"/>
    <trip id="146" depart="40.50" from="A1B1.80.00" to="A0A1.80.00" type="passenger"/>
    <trip id="147" depart="40.55" from="D2D1" to="C2C1.80.00" type="passenger"/>
    <trip id="148" depart="41.49" from="D1C1.80.00" to="B1B0" type="passenger"/>
    <trip id="149" depart="41.76" from="B1B2" to="C1C2" type="passenger"/>
    <trip id="150" depart="41.82" from="top0A4" to="C2D2" type="passenger"/>
    <trip id="151" depart="41.88" from="A0A1" to="D1E1" type="passenger"/>
    <trip id="152" depart="41.88" from="D1E1.80.00" to="B1B2.80.00" type="passenger"/>
    <trip id="153" depart="42.23" from="B4C4.80.00" to="B2A2.80.00" type="passenger"/>
    <trip id="154" depart="42.27" from="B4A4" to="C0D0" type="passenger"/>
    <trip id="155" depart="42.58" from="D2C2" to="A2B2" type="passenger"/>
    <trip id="156" depart="43.26" from="D4C4" to="bottom4E0.80.00" type="passenger"/>
    <trip id="157" depart="43.34" from="A1A0.80.00" to="E4right4" type="passenger"/>
    <trip id="158" depart="44.42" from="B0B1" to="C2D2" type="passenger"/>
    <trip id="159" depart="44.80" from="top3D4.80.00" to="B0B1.80.00" type="passenger"/>
    <trip id="160" depart="45.02" from="right4E4" to="right2E2.80.00" type="passenger"/>
    <trip id="161" depart="46.08" from="E0D0" to="B2B1" type="passenger"/>
    <trip id="162" depart="46.20" from="D3C3.80.00" to="C0B0" type="passenger"/>
    <trip id="163" depart="46.26" from="A1A0" to="D0D1.80.00" type="passenger"/>
    <trip id="164" depart="46.54" from="D1E1" to="A1A0" type="passenger"/>
    <trip id="165" depart="46.75" from="C0B0" to="E3E2" type="passenger"/>
    <trip id="166" depart="47.59" from="C1C0" to="C1C2" type="passenger"/>
    <trip id="167" depart="47.59" from="A2B2.80.00" to="right1E1.80.00" type="passenger"/>
    <trip id="168" depart="47.97" from="left1A1.80.00" to="A4A3.80.00" type="passenger"/>
    <trip id="169" depart="48.05" from="B4A4" to="D2D3.80.00" type="passenger"/>
    <trip id="170" depart="48.54" from="top2C4.80.00" to="E4top4" type="passenger"/>
    <trip id="171" depart="48.88" from="right2E2" to="D2D1.80.00" type="passenger"/>
    <trip id="172" depart="49.51" from="D4D3" to="C1C0" type="passenger"/>
    <trip id="173" depart="50.40" from="B1C1" to="C3B3.80.00" type="passenger"/>
    <trip id="174" depart="50.89" from="C1B1.80.00" to="C1B1" type="passenger"/>
    <trip id="175" depart="51.28" from="B4B3" to="bottom4E0.80.00" type="passenger"/>
    <trip id="176" depart="51.29" from="A1B1" to="D4E4" type="passenger"/>
    <trip id="177" depart="52.13" from="C1C0" to="B4C4.80.00" type="passenger"/>
    <trip id="178" depart="52.50" from="B3B4" to="A1A2.80.00" type="passenger"/>
    <trip id="179" depart="53.30" from="C0C1.80.00" to="E4right4" type="passenger"/>
    <trip id="180" depart="53.42" from="D2D3.80.00" to="E2E1" type="passenger"/>
    <trip id="181" depart="53.88" from="D2C2.80.00" to="E0D0.80.00" type="passenger"/>
    <trip id="182" depart="54.06" from="A0A1.80.00" to="E1E2" type="passenger"/>
    <trip id="183" depart="54.54" from="B0C0" to="E1E0" type="passenger"/>
    <trip id="184" depart="55.13" from="B1B2" to="E1E2" type="passenger"/>
    <trip id="185" depart="55.14" from="B2C2" to="E4right4" type="passenger"/>
    <trip id="186" depart="55.15" from="B2B1.80.00" to="E3E2" type="passenger"/>
    <trip id="187" depart="55.19" from="E2D2.80.00" to="B1B2.80.00" type="passenger"/>
    <trip id="188" depart="55.33" from="C2D2.80.00" to="D0E0.80.00" type="passenger"/>
    <trip id="189" depart="55.48" from="right0E0.80.00" to="C4top2" type="passenger"/>
    <trip id="190" depart="55.60" from="D3C3.80.00" to="E2D2.80.00" type="passenger"/>
    <trip id="191" depart="55.80" from="right0E0" to="A3A2.80.00" type="passenger"/>
    <trip id="192" depart="55.91" from="right2E2" to="A0B0.80.00" type="passenger"/>
    <trip id="193" depart="55.93" from="C4C3" to="D3C3.80.00" type="passenger"/>
    <trip id="194" depart="56.17" from="A2A1.80.00" to="B4A4" type="passenger"/>
    <trip id="195" depart="56.50" from="B1A1" to="B1C1" type="passenger"/>
    <trip id="196" depart="56.70" from="A2A1.80.00" to="D3D4.80.00" type="passenger"/>
    <trip id="197" depart="56.95" from="E0E1" to="B3B2" type="passenger"/>
    <trip id="198" depart="56.97" from="D3D4" to="bottom2C0.80.00" type="passenger"/>
    <trip id="199" depart="57.07" from="A4B4.80.00" to="E1E0" type="passenger"/>
    <trip id="200" depart="57.61" from="B4A4.80.00" to="E1E2" type="passenger"/>
    <trip id="201" depart="57.78" from="E3D3" to="A0A1" type="passenger"/>
    <trip id="202" depart="58.18" from="E4D4" to="E0E1" type="passenger"/>
    <trip id="203" depart="58.99" from="B1C1" to="B1B0" type="passenger"/>
    <trip id="204" depart="59.19" from="B3C3.80.00" to="B4B3" type="passenger"/>
    <trip id="205" depart="59.31" from="top0A4" to="C0D0.80.00" type="passenger"/>
    <trip id="206" depart="59.74" from="B2A2.80.00" to="D0D1.80.00" type="passenger"/>
    <trip id="207" depart="60.02" from="E1E0" to="D1E1" type="passenger"/>
    <trip id="208" depart="60.03" from="A4B4.80.00" to="right2E2.80.00" type="passenger"/>
    <trip id="209" depart="60.62" from="D2D1.80.00" to="B4B3.80.00" type="passenger"/>
    <trip id="210" depart="60.96" from="B1B0.80.00" to="A3A4.80.00" type="passenger"/>
    <trip id="211" depart="61.16" from="B3C3.80.00" to="A1B1" type="passenger"/>
    <trip id="212" depart="61.24" from="B4A4" to="D4D3.80.00" type="passenger"/>
    <trip id="213" depart="61.28" from="E0D0.80.00" to="D3D4.80.00" type="passenger"/>
    <trip id="214" depart="61.44" from="B4C4.80.00" to="C2B2" type="passenger"/>
    <trip id="215" depart="61.59" from="A3A4" to="D3E3" type="passenger"/>
    <trip id="216" depart="61.64" from="A4A3" to="D2E2.80.00" type="passenger"/>
    <trip id="217" depart="61.86" from="E1D1" to="B2B1.80.00" type="passenger"/>
    <trip id="218" depart="62.21" from="bottom0A0.80.00" to="A1left1" type="passenger"/>
    <trip id="219" depart="62.50" from="E1E2" to="E0D0" type="passenger"/>
    <trip id="220" depart="62.77" from="A0B0" to="E3right3" type="passenger"/>
    <trip id="221" depart="62.79" from="D2C2.80.00" to="C3B3.80.00" type="passenger"/>
    <trip id="222" depart="62.88" from="B2B1" to="C2D2" type="passenger"/>
    <trip id="223" depart="63.18" from="A3A4" to="A4A3" type="passenger"/>
    <trip id="224" depart="63.43" from="E3D3.80.00" to="A2B2" type="passenger"/>
    <trip id="225" depart="63.70" from="bottom4E0" to="B4A4.80.00" type="passenger"/>
    <trip id="226" depart="63.89" from="right0E0" to="B1C1" type="passenger"/>
    <trip id="227" depart="64.64" from="D1D0" to="B1B2.80.00" type="passenger"/>
    <trip id="228" depart="64.95" from="C3C2" to="A2A1" type="passenger"/>
    <trip id="229" depart="64.96" from="right0E0.80.00" to="C4D4" type="passenger"/>
    <trip id="230" depart="65.06" from="A0A1" to="B3B2" type="passenger"/>
    <trip id="231" depart="65.17" from="D1E1.80.00" to="A3A2.80.00" type="passenger"/>
    <trip id="232" depart="65.30" from="E1D1.80.00" to="C2D2" type="passenger"/>
    <trip id="233" depart="65.33" from="B0B1" to="C1B1.80.00" type="passenger"/>
    <trip id="234" depart="65.50" from="D1D2.80.00" to="E4right4" type="passenger"/>
    <trip id="235" depart="65.94" from="top0A4.80.00" to="A3B3" type="passenger"/>
    <trip id="236" depart="65.99" from="top2C4" to="D3D4" type="passenger"/>
    <trip id="237" depart="66.07" from="A3A2" to="top2C4.80.00" type="passenger"/>
    <trip id="238" depart="66.32" from="B2C2" to="B2C2" type="passenger"/>
    <trip id="239" depart="66.34" from="C1B1.80.00" to="E4D4" type="passenger"/>
    <trip id="240" depart="66.71" from="right0E0.80.00" to="C3C2" type="passenger"/>
    <trip id="241" depart="66.72" from="A2A1.80.00" to="C3C2.80.00" type="passenger"/>
    <trip id="242" depart="66.74" from="A0A1.80.00" to="C2B2" type="passenger"/>
    <trip id="243" depart="66.79" from="C0D0" to="B0A0" type="passenger"/>
    <trip id="244" depart="66.97" from="right0E0.80.00" to="E2E3.80.00" type="passenger"/>
    <trip id="245" depart="68.14" from="D0E0" to="B1B0.80.00" type="passenger"/>
    <trip id="246" depart="68.85" from="D3E3.80.00" to="C3C2" type="passenger"/>
    <trip id="247" depart="69.13" from="C3D3.80.00" to="D3E3" type="passenger"/>
    <trip id="248" depart="69.39" from="right3E3.80.00" to="D2E2.80.00" type="passenger"/>
    <trip id="249" depart="69.40" from="C4D4.80.00" to="A3A2" type="passenger"/>
    <trip id="250" depart="69.49" from="C3B3" to="E2right2" type="passenger"/>
    <trip id="251" depart="69.73" from="E0E1" to="E4D4" type="passenger"/>
    <trip id="252" depart="69.75" from="D2C2" to="D1E1.80.00" type="passenger"/>
    <trip id="253" depart="70.13" from="D4D3.80.00" to="B3A3" type="passenger"/>
    <trip id="254" depart="70.58" from="D4C4.80.00" to="B0bottom1" type="passenger"/>
    <trip id="255" depart="71.63" from="left1A1.80.00" to="D1D0.80.00" type="passenger"/>
    <trip id="256" depart="72.22" from="B4A4.80.00" to="C2D2" type="passenger"/>
    <trip id="257" depart="72.53" from="right0E0.80.00" to="D2D1.80.00" type="passenger"/>
    <trip id="258" depart="72.61" from="top0A4" to="E0D0.80.00" type="passenger"/>
    <trip id="259" depart="72.68" from="A1A2.80.00" to="B1A1" type="passenger"/>
    <trip id="260" depart="73.46" from="bottom3D0.80.00" to="left3A3.80.00" type="passenger"/>
    <trip id="261" depart="73.54" from="C3C2.80.00" to="C4B4.80.00" type="passenger"/>
    <trip id="262" depart="73.62" from="C0B0.80.00" to="C0C1" type="passenger"/>
    <trip id="263" depart="73.94" from="D0C0" to="C4B4.80.00" type="passenger"/>
    <trip id="264" depart="74.07" from="B1A1" to="D1C1" type="passenger"/>
    <trip id="265" depart="74.33" from="left4A4.80.00" to="E3E4" type="passenger"/>
    <trip id="266" depart="74.46" from="E4E3.80.00" to="B0A0" type="passenger"/>
    <trip id="267" depart="74.50" from="top4E4.80.00" to="D3C3.80.00" type="passenger"/>
    <trip id="268" depart="74.64" from="left0A0" to="bottom3D0.80.00" type="passenger"/>
    <trip id="269" depart="74.93" from="top4E4" to="A0bottom0" type="passenger"/>
    <trip id="270" depart="75.48" from="bottom1B0.80.00" to="C0C1" type="passenger"/>
    <trip id="271" depart="75.57" from="E0E1.80.00" to="A2left2" type="passenger"/>
    <trip id="272" depart="76.06" from="C1C2.80.00" to="D1C1.80.00" type="passenger"/>
    <trip id="273" depart="76.18" from="B1C1.80.00" to="top0A4.80.00" type="passenger"/>
    <trip id="274" depart="76.37" from="E0E1" to="top3D4.80.00" type="passenger"/>
    <trip id="275" depart="76.70" from="B0A0.80.00" to="A4B4" type="passenger"/>
    <trip id="276" depart="77.42" from="B1A1.80.00" to="C2C1.80.00" type="passenger"/>
    <trip id="277" depart="77.46" from="C2C3.80.00" to="A1A2" type="passenger"/>
    <trip id="278" depart="77.60" from="C0C1.80.00" to="A1A0" type="passenger"/>
    <trip id="279" depart="77.64" from="A2A1" to="B3B4.80.00" type="passenger"/>
    <trip id="280" depart="77.82" from="B1A1" to="D2E2" type="passenger"/>
    <trip id="281" depart="78.08" from="E1D1.80.00" to="A2B2.80.00" type="passenger"/>
    <trip id="282" depart="78.27" from="E3E4" to="D0C0" type="passenger"/>
    <trip id="283" depart="78.33" from="B2A2" to="D1D0.80.00" type="passenger"/>
    <trip id="284" depart="78.39" from="C2B2.80.00" to="B0B1" type="passenger"/>
    <trip id="285" depart="78.42" from="B1C1.80.00" to="C3B3" type="passenger"/>
    <trip id="286" depart="78.71" from="D2D1.80.00" to="E4D4.80.00" type="passenger"/>
    <trip id="287" depart="78.85" from="E2D2.80.00" to="D4E4.80.00" type="passenger"/>
    <trip id="288" depart="78.94" from="right0E0.80.00" to="A2B2" type="passenger"/>
    <trip id="289" depart="79.44" from="left3A3.80.00" to="D1D0" type="passenger"/>
    <trip id="290" depart="79.59" from="left3A3" to="C3C2" type="passenger"/>
    <trip id="291" depart="79.83" from="A3A2" to="B2B3" type="passenger"/>
    <trip id="292" depart="80.54" from="top0A4" to="D2C2.80.00" type="passenger"/>
    <trip id="293" depart="80.90" from="B3B2.80.00" to="E0E1" type="passenger"/>
    <trip id="294" depart="80.91" from="right4E4.80.00" to="D1D2" type="passenger"/>
    <trip id="295" depart="80.97" from="A3B3.80.00" to="bottom3D0.80.00" type="passenger"/>
    <trip id="296" depart="81.26" from="D3C3.80.00" to="B2C2" type="passenger"/>
    <trip id="297" depart="81.35" from="A0A1.80.00" to="D0D1.80.00" type="passenger"/>
    <trip id="298" depart="81.38" from="A4B4" to="top4E4.80.00" type="passenger"/>
    <trip id="299" depart="81.43" from="A3B3.80.00" to="A1A0" type="passenger"/>
    <trip id="300" depart="81.62" from="B4B3" to="E0right0" type="passenger"/>
    <trip id="301" depart="81.89" from="E0E1.80.00" to="B2A2" type="passenger"/>
    <trip id="302" depart="81.90" from="D2C2.80.00" to="A0bottom0" type="passenger"/>
    <trip id="303" depart="82.02" from="E1E0.80.00" to="A4top0" type="passenger"/>
    <trip id="304" depart="82.33" from="D3E3" to="E2D2.80.00" type="passenger"/>
    <trip id="305" depart="82.39" from="B0A0" to="A3B3" type="passenger"/>
    <trip id="306" depart="82.58" from="top3D4" to="C2C3.80.00" type="passenger"/>
    <trip id="307" depart="82.65" from="D2D3" to="C3B3" type="passenger"/>
    <trip id="308" depart="83.21" from="top2C4" to="C2B2" type="passenger"/>
    <trip id="309" depart="83.25" from="A1A2.80.00" to="D2C2" type="passenger"/>
    <trip id="310" depart="83.34" from="C1D1.80.00" to="B0A0" type="passenger"/>
    <trip id="311" depart="84.06" from="C3C4.80.00" to="E4top4" type="passenger"/>
    <trip id="312" depart="84.32" from="D1E1" to="C4C3" type="passenger"/>
    <trip id="313" depart="84.65" from="C2D2.80.00" to="D1D0" type="passenger"/>
    <trip id="314" depart="84.66" from="A3A4" to="C1C0.80.00" type="passenger"/>
    <trip id="315" depart="84.78" from="E3E4.80.00" to="A1A2.80.00" type="passenger"/>
    <trip id="316" depart="84.93" from="left0A0" to="A1B1.80.00" type="passenger"/>
    <trip id="317" depart="85.30" from="B4A4" to="bottom1B0.80.00" type="passenger"/>
    <trip id="318" depart="85.85" from="A1A0.80.00" to="E0bottom4" type="passenger"/>
    <trip id="319" depart="85.93" from="B2C2" to="B1C1" type="passenger"/>
    <trip id="320" depart="86.54" from="D1E1.80.00" to="B4B3" type="passenger"/>
    <trip id="321" depart="86.92" from="E2D2" to="A4A3" type="passenger"/>
    <trip id="322" depart="87.12" from="C1C0.80.00" to="D2E2" type="passenger"/>
    <trip id="323" depart="87.26" from="E3D3" to="C0D0" type="passenger"/>
    <trip id="324" depart="88.13" from="C1B1.80.00" to="E3E2" type="passenger"/>
    <trip id="325" depart="88.26" from="D0E0" to="D1D2" type="passenger"/>
    <trip id="326" depart="88.39" from="right3E3" to="A4B4.80.00" type="passenger"/>
    <trip id="327" depart="88.54" from="B2C2" to="B0B1.80.00" type="passenger"/>
    <trip id="328" depart="88.66" from="A4A3" to="B2C2.80.00" type="passenger"/>
    <trip id="329" depart="88.94" from="A0B0" to="A2left2" type="passenger"/>
    <trip id="330" depart="89.01" from="E0E1" to="D3D4" type="passenger"/>
    <trip id="331" depart="89.44" from="C2C3.80.00" to="B2C2.80.00" type="passenger"/>
    <trip id="332" depart="90.52" from="C3B3.80.00" to="C2D2.80.00" type="passenger"/>
    <trip id="333" depart="90.55" from="A3A4.80.00" to="D4C4.80.00" type="passenger"/>
    <trip id="334" depart="90.97" from="right3E3" to="C2C1.80.00" type="passenger"/>
    <trip id="335" depart="91.07" from="B3A3" to="E1D1" type="passenger"/>
    <trip id="336" depart="91.12" from="B3A3" to="D2C2.80.00" type="passenger"/>
    <trip id="337" depart="91.68" from="D4C4.80.00" to="C0B0.80.00" type="passenger"/>
    <trip id="338" depart="91.74" from="C1C0" to="E3E2.80.00" type="passenger"/>
    <trip id="339" depart="92.18" from="C3D3.80.00" to="D2E2" type="passenger"/>
    <trip id="340" depart="92.32" from="B2B3" to="left1A1.80.00" type="passenger"/>
    <trip id="341" depart="92.78" from="D1C1.80.00" to="E1D1.80.00" type="passenger"/>
    <trip id="342" depart="92.98" from="top2C4.80.00" to="A2A3" type="passenger"/>
    <trip id="343" depart="93.08" from="E1E0.80.00" to="C2C1" type="passenger"/>
    <trip id="344" depart="93.27" from="C4B4" to="A1B1" type="passenger"/>
    <trip id="345" depart="93.62" from="bottom2C0.80.00" to="D3E3" type="passenger"/>
    <trip id="346" depart="94.29" from="B4C4" to="D0C0.80.00" type="passenger"/>
    <trip id="347" depart="94.69" from="B1B2.80.00" to="left2A2.80.00" type="passenger"/>
    <trip id="348" depart="94.70" from="E1D1.80.00" to="C1B1.80.00" type="passenger"/>
    <trip id="349" depart="94.72" from="B2B3" to="A1A2" type="passenger"/>
    <trip id="350" depart="94.82" from="B3B2.80.00" to="D4C4.80.00" type="passenger"/>
    <trip id="351" depart="95.39" from="A2B2.80.00" to="D2D3" type="passenger"/>
    <trip id="352" depart="96.39" from="A2B2.80.00" to="A3B3.80.00" type="passenger"/>
    <trip id="353" depart="96.44" from="B2B1" to="C1C2.80.00" type="passenger"/>
    <trip id="354" depart="96.57" from="B3B2" to="C4C3.80.00" type="passenger"/>