<?xml version="1.0" encoding="UTF-8"?>

<!-- generated on 2023-04-26 16:56:46.146732 by randomTrips.py UNKNOWN
<configuration>
    <begin value="0"/>
    <end value="900"/>
    <insertion-rate value="8000.0"/>
    <net-file value="/home/franky3er/Documents/code/HieraGLight/scenarios/grid/1x1-500m/train/29-scenario/network.net.xml"/>
    <random value="True"/>
    <random-depart value="True"/>
    <route-file value="/home/franky3er/Documents/code/HieraGLight/scenarios/grid/1x1-500m/train/29-scenario/routes.rou.xml"/>
    <seed value="29"/>
    <output-trip-file value="/home/franky3er/Documents/code/HieraGLight/scenarios/grid/1x1-500m/train/29-scenario/trips.trips.xml"/>
    <vehicle-class value="passenger"/>
</configuration>
-->

<!-- generated on 2023-04-26 16:56:46 by Eclipse SUMO duarouter Version 1.16.0
<configuration xmlns:xsi="http://www.w3.org/2001/XMLSchema-instance" xsi:noNamespaceSchemaLocation="http://sumo.dlr.de/xsd/duarouterConfiguration.xsd">

    <input>
        <net-file value="/home/franky3er/Documents/code/HieraGLight/scenarios/grid/1x1-500m/train/29-scenario/network.net.xml"/>
        <route-files value="/home/franky3er/Documents/code/HieraGLight/scenarios/grid/1x1-500m/train/29-scenario/trips.trips.xml"/>
    </input>

    <output>
        <output-file value="/home/franky3er/Documents/code/HieraGLight/scenarios/grid/1x1-500m/train/29-scenario/routes.rou.xml"/>
        <alternatives-output value="NUL"/>
    </output>

    <time>
        <begin value="0"/>
        <end value="900"/>
    </time>

    <report>
        <no-warnings value="true"/>
        <ignore-errors value="true"/>
        <no-step-log value="true"/>
    </report>

</configuration>
-->

<routes xmlns:xsi="http://www.w3.org/2001/XMLSchema-instance" xsi:noNamespaceSchemaLocation="http://sumo.dlr.de/xsd/routes_file.xsd">
    <vType id="passenger" vClass="passenger"/>
    <vehicle id="0" type="passenger" depart="0.30">
        <route edges="top0A0.250.00 A0left0"/>
    </vehicle>
    <vehicle id="5" type="passenger" depart="3.70">
        <route edges="top0A0.250.00 A0left0"/>
    </vehicle>
    <vehicle id="7" type="passenger" depart="4.20">
        <route edges="left0A0 left0A0.250.00"/>
    </vehicle>
    <vehicle id="8" type="passenger" depart="5.00">
        <route edges="left0A0 left0A0.250.00"/>
    </vehicle>
    <vehicle id="10" type="passenger" depart="5.95">
        <route edges="right0A0 right0A0.250.00 A0top0"/>
    </vehicle>
    <vehicle id="12" type="passenger" depart="6.95">
        <route edges="bottom0A0.250.00 A0right0"/>
    </vehicle>
    <vehicle id="13" type="passenger" depart="6.95">
        <route edges="right0A0.250.00 A0top0"/>
    </vehicle>
    <vehicle id="14" type="passenger" depart="7.30">
        <route edges="right0A0 right0A0.250.00 A0top0"/>
    </vehicle>
    <vehicle id="15" type="passenger" depart="8.00">
        <route edges="right0A0.250.00 A0bottom0"/>
    </vehicle>
    <vehicle id="16" type="passenger" depart="8.60">
        <route edges="top0A0 top0A0.250.00 A0bottom0"/>
    </vehicle>
    <vehicle id="17" type="passenger" depart="8.90">
        <route edges="bottom0A0.250.00 A0top0"/>
    </vehicle>
    <vehicle id="22" type="passenger" depart="11.05">
        <route edges="bottom0A0 bottom0A0.250.00 A0left0"/>
    </vehicle>
    <vehicle id="24" type="passenger" depart="13.60">
        <route edges="top0A0.250.00 A0left0"/>
    </vehicle>
    <vehicle id="29" type="passenger" depart="15.70">
        <route edges="right0A0 right0A0.250.00"/>
    </vehicle>
    <vehicle id="30" type="passenger" depart="16.25">
        <route edges="left0A0 left0A0.250.00 A0right0"/>
    </vehicle>
    <vehicle id="32" type="passenger" depart="17.45">
        <route edges="bottom0A0.250.00 A0left0"/>
    </vehicle>
    <vehicle id="34" type="passenger" depart="18.85">
        <route edges="left0A0 left0A0.250.00"/>
    </vehicle>
    <vehicle id="35" type="passenger" depart="19.25">
        <route edges="right0A0.250.00 A0bottom0"/>
    </vehicle>
    <vehicle id="39" type="passenger" depart="20.30">
        <route edges="bottom0A0.250.00 A0left0"/>
    </vehicle>
    <vehicle id="40" type="passenger" depart="20.40">
        <route edges="right0A0.250.00 A0left0"/>
    </vehicle>
    <vehicle id="42" type="passenger" depart="20.85">
        <route edges="right0A0 right0A0.250.00 A0top0"/>
    </vehicle>
    <vehicle id="43" type="passenger" depart="21.00">
        <route edges="top0A0 top0A0.250.00 A0right0"/>
    </vehicle>
    <vehicle id="45" type="passenger" depart="21.35">
        <route edges="top0A0 top0A0.250.00 A0right0"/>
    </vehicle>
    <vehicle id="48" type="passenger" depart="21.55">
        <route edges="right0A0 right0A0.250.00"/>
    </vehicle>
    <vehicle id="49" type="passenger" depart="22.10">
        <route edges="left0A0.250.00 A0top0"/>
    </vehicle>
    <vehicle id="50" type="passenger" depart="22.50">
        <route edges="right0A0 right0A0.250.00 A0top0"/>
    </vehicle>
    <vehicle id="53" type="passenger" depart="22.60">
        <route edges="left0A0 left0A0.250.00 A0bottom0"/>
    </vehicle>
    <vehicle id="54" type="passenger" depart="22.80">
        <route edges="left0A0 left0A0.250.00 A0right0"/>
    </vehicle>
    <vehicle id="56" type="passenger" depart="25.10">
        <route edges="top0A0 top0A0.250.00"/>
    </vehicle>
    <vehicle id="58" type="passenger" depart="25.75">
        <route edges="right0A0.250.00 A0bottom0"/>
    </vehicle>
    <vehicle id="59" type="passenger" depart="26.25">
        <route edges="right0A0.250.00"/>
    </vehicle>
    <vehicle id="61" type="passenger" depart="29.50">
        <route edges="right0A0.250.00 A0left0"/>
    </vehicle>
    <vehicle id="66" type="passenger" depart="32.20">
        <route edges="left0A0 left0A0.250.00 A0bottom0"/>
    </vehicle>
    <vehicle id="67" type="passenger" depart="32.70">
        <route edges="right0A0.250.00 A0bottom0"/>
    </vehicle>
    <vehicle id="71" type="passenger" depart="34.60">
        <route edges="bottom0A0 bottom0A0.250.00"/>
    </vehicle>
    <vehicle id="72" type="passenger" depart="35.60">
        <route edges="right0A0 right0A0.250.00 A0left0"/>
    </vehicle>
    <vehicle id="76" type="passenger" depart="37.65">
        <route edges="right0A0.250.00"/>
    </vehicle>
    <vehicle id="77" type="passenger" depart="37.95">
        <route edges="bottom0A0 bottom0A0.250.00"/>
    </vehicle>
    <vehicle id="78" type="passenger" depart="38.10">
        <route edges="top0A0 top0A0.250.00 A0right0"/>
    </vehicle>
    <vehicle id="79" type="passenger" depart="38.15">
        <route edges="left0A0.250.00 A0top0"/>
    </vehicle>
    <vehicle id="81" type="passenger" depart="38.50">
        <route edges="bottom0A0.250.00 A0right0"/>
    </vehicle>
    <vehicle id="83" type="passenger" depart="39.15">
        <route edges="left0A0 left0A0.250.00 A0bottom0"/>
    </vehicle>
    <vehicle id="84" type="passenger" depart="39.80">
        <route edges="left0A0 left0A0.250.00 A0bottom0"/>
    </vehicle>
    <vehicle id="85" type="passenger" depart="40.05">
        <route edges="right0A0 right0A0.250.00 A0bottom0"/>
    </vehicle>
    <vehicle id="86" type="passenger" depart="40.40">
        <route edges="right0A0 right0A0.250.00 A0left0"/>
    </vehicle>
    <vehicle id="88" type="passenger" depart="41.20">
        <route edges="left0A0 left0A0.250.00"/>
    </vehicle>
    <vehicle id="89" type="passenger" depart="41.50">
        <route edges="right0A0.250.00 A0top0"/>
    </vehicle>
    <vehicle id="90" type="passenger" depart="42.75">
        <route edges="top0A0.250.00"/>
    </vehicle>
    <vehicle id="93" type="passenger" depart="44.75">
        <route edges="right0A0 right0A0.250.00"/>
    </vehicle>
    <vehicle id="94" type="passenger" depart="44.85">
        <route edges="top0A0.250.00"/>
    </vehicle>
    <vehicle id="95" type="passenger" depart="45.65">
        <route edges="right0A0 right0A0.250.00 A0left0"/>
    </vehicle>
    <vehicle id="96" type="passenger" depart="45.75">
        <route edges="left0A0.250.00 A0top0"/>
    </vehicle>
    <vehicle id="98" type="passenger" depart="46.05">
        <route edges="bottom0A0 bottom0A0.250.00 A0left0"/>
    </vehicle>
    <vehicle id="101" type="passenger" depart="47.45">
        <route edges="top0A0 top0A0.250.00 A0bottom0"/>
    </vehicle>
    <vehicle id="102" type="passenger" depart="48.50">
        <route edges="right0A0.250.00 A0bottom0"/>
    </vehicle>
    <vehicle id="104" type="passenger" depart="49.05">
        <route edges="bottom0A0.250.00 A0top0"/>
    </vehicle>
    <vehicle id="108" type="passenger" depart="50.10">
        <route edges="left0A0 left0A0.250.00 A0bottom0"/>
    </vehicle>
    <vehicle id="109" type="passenger" depart="50.20">
        <route edges="left0A0.250.00 A0bottom0"/>
    </vehicle>
    <vehicle id="113" type="passenger" depart="52.10">
        <route edges="bottom0A0.250.00 A0left0"/>
    </vehicle>
    <vehicle id="115" type="passenger" depart="52.80">
        <route edges="right0A0 right0A0.250.00"/>
    </vehicle>
    <vehicle id="119" type="passenger" depart="55.30">
        <route edges="bottom0A0 bottom0A0.250.00 A0top0"/>
    </vehicle>
    <vehicle id="121" type="passenger" depart="55.75">
        <route edges="left0A0.250.00 A0top0"/>
    </vehicle>
    <vehicle id="122" type="passenger" depart="56.35">
        <route edges="bottom0A0.250.00 A0top0"/>
    </vehicle>
    <vehicle id="123" type="passenger" depart="56.60">
        <route edges="top0A0.250.00 A0bottom0"/>
    </vehicle>
    <vehicle id="126" type="passenger" depart="57.30">
        <route edges="right0A0 right0A0.250.00 A0top0"/>
    </vehicle>
    <vehicle id="127" type="passenger" depart="57.45">
        <route edges="top0A0 top0A0.250.00 A0bottom0"/>
    </vehicle>
    <vehicle id="128" type="passenger" depart="58.15">
        <route edges="right0A0 right0A0.250.00 A0bottom0"/>
    </vehicle>
    <vehicle id="129" type="passenger" depart="58.15">
        <route edges="left0A0 left0A0.250.00 A0right0"/>
    </vehicle>
    <vehicle id="132" type="passenger" depart="59.20">
        <route edges="top0A0.250.00"/>
    </vehicle>
    <vehicle id="134" type="passenger" depart="59.70">
        <route edges="left0A0.250.00 A0right0"/>
    </vehicle>
    <vehicle id="136" type="passenger" depart="61.00">
        <route edges="right0A0 right0A0.250.00 A0top0"/>
    </vehicle>
    <vehicle id="137" type="passenger" depart="61.00">
        <route edges="top0A0 top0A0.250.00 A0right0"/>
    </vehicle>
    <vehicle id="139" type="passenger" depart="62.60">
        <route edges="right0A0 right0A0.250.00 A0bottom0"/>
    </vehicle>
    <vehicle id="140" type="passenger" depart="62.75">
        <route edges="bottom0A0 bottom0A0.250.00 A0left0"/>
    </vehicle>
    <vehicle id="143" type="passenger" depart="64.10">
        <route edges="bottom0A0 bottom0A0.250.00"/>
    </vehicle>
    <vehicle id="145" type="passenger" depart="64.35">
        <route edges="left0A0.250.00 A0right0"/>
    </vehicle>
    <vehicle id="158" type="passenger" depart="70.90">
        <route edges="right0A0 right0A0.250.00 A0left0"/>
    </vehicle>
    <vehicle id="159" type="passenger" depart="71.80">
        <route edges="bottom0A0.250.00 A0top0"/>
    </vehicle>
    <vehicle id="160" type="passenger" depart="72.65">
        <route edges="top0A0 top0A0.250.00 A0bottom0"/>
    </vehicle>
    <vehicle id="163" type="passenger" depart="73.30">
        <route edges="bottom0A0 bottom0A0.250.00 A0right0"/>
    </vehicle>
    <vehicle id="165" type="passenger" depart="73.55">
        <route edges="right0A0.250.00"/>
    </vehicle>
    <vehicle id="166" type="passenger" depart="74.40">
        <route edges="left0A0.250.00 A0right0"/>
    </vehicle>
    <vehicle id="167" type="passenger" depart="74.95">
        <route edges="top0A0.250.00 A0right0"/>
    </vehicle>
    <vehicle id="171" type="passenger" depart="75.90">
        <route edges="bottom0A0 bottom0A0.250.00 A0right0"/>
    </vehicle>
    <vehicle id="172" type="passenger" depart="76.30">
        <route edges="top0A0.250.00 A0bottom0"/>
    </vehicle>
    <vehicle id="173" type="passenger" depart="76.50">
        <route edges="left0A0 left0A0.250.00 A0top0"/>
    </vehicle>
    <vehicle id="176" type="passenger" depart="77.15">
        <route edges="right0A0 right0A0.250.00"/>
    </vehicle>
    <vehicle id="178" type="passenger" depart="77.45">
        <route edges="right0A0 right0A0.250.00 A0left0"/>
    </vehicle>
    <vehicle id="179" type="passenger" depart="78.00">
        <route edges="right0A0.250.00"/>
    </vehicle>
    <vehicle id="180" type="passenger" depart="78.30">
        <route edges="right0A0.250.00"/>
    </vehicle>
    <vehicle id="181" type="passenger" depart="78.45">
        <route edges="top0A0 top0A0.250.00"/>
    </vehicle>
    <vehicle id="183" type="passenger" depart="79.35">
        <route edges="bottom0A0.250.00"/>
    </vehicle>
    <vehicle id="186" type="passenger" depart="80.10">
        <route edges="bottom0A0.250.00 A0right0"/>
    </vehicle>
    <vehicle id="187" type="passenger" depart="80.15">
        <route edges="top0A0.250.00"/>
    </vehicle>
    <vehicle id="189" type="passenger" depart="80.90">
        <route edges="left0A0.250.00"/>
    </vehicle>
    <vehicle id="193" type="passenger" depart="81.75">
        <route edges="bottom0A0.250.00 A0right0"/>
    </vehicle>
    <vehicle id="195" type="passenger" depart="83.25">
        <route edges="top0A0 top0A0.250.00 A0right0"/>
    </vehicle>
    <vehicle id="196" type="passenger" depart="83.95">
        <route edges="top0A0 top0A0.250.00 A0left0"/>
    </vehicle>
    <vehicle id="197" type="passenger" depart="84.15">
        <route edges="bottom0A0 bottom0A0.250.00"/>
    </vehicle>
    <vehicle id="202" type="passenger" depart="86.50">
        <route edges="right0A0 right0A0.250.00"/>
    </vehicle>
    <vehicle id="208" type="passenger" depart="88.05">
        <route edges="left0A0 left0A0.250.00"/>
    </vehicle>
    <vehicle id="209" type="passenger" depart="88.40">
        <route edges="right0A0 right0A0.250.00"/>
    </vehicle>
    <vehicle id="211" type="passenger" depart="91.75">
        <route edges="left0A0 left0A0.250.00 A0top0"/>
    </vehicle>
    <vehicle id="213" type="passenger" depart="92.75">
        <route edges="right0A0 right0A0.250.00 A0left0"/>
    </vehicle>
    <vehicle id="214" type="passenger" depart="93.10">
        <route edges="right0A0.250.00 A0bottom0"/>
    </vehicle>
    <vehicle id="215" type="passenger" depart="93.85">
        <route edges="left0A0.250.00 A0top0"/>
    </vehicle>
    <vehicle id="220" type="passenger" depart="95.60">
        <route edges="top0A0.250.00 A0right0"/>
    </vehicle>
    <vehicle id="221" type="passenger" depart="95.65">
        <route edges="top0A0 top0A0.250.00 A0right0"/>
    </vehicle>
    <vehicle id="224" type="passenger" depart="96.65">
        <route edges="left0A0.250.00 A0right0"/>
    </vehicle>
    <vehicle id="230" type="passenger" depart="99.05">
        <route edges="top0A0 top0A0.250.00 A0right0"/>
    </vehicle>
    <vehicle id="231" type="passenger" depart="99.85">
        <route edges="bottom0A0.250.00 A0left0"/>
    </vehicle>
    <vehicle id="232" type="passenger" depart="100.25">
        <route edges="top0A0 top0A0.250.00"/>
    </vehicle>
    <vehicle id="233" type="passenger" depart="100.65">
        <route edges="top0A0.250.00 A0right0"/>
    </vehicle>
    <vehicle id="234" type="passenger" depart="101.45">
        <route edges="top0A0.250.00"/>
    </vehicle>
    <vehicle id="235" type="passenger" depart="101.80">
        <route edges="top0A0.250.00 A0right0"/>
    </vehicle>
    <vehicle id="237" type="passenger" depart="102.70">
        <route edges="bottom0A0 bottom0A0.250.00 A0top0"/>
    </vehicle>
    <vehicle id="241" type="passenger" depart="103.70">
        <route edges="right0A0.250.00"/>
    </vehicle>
    <vehicle id="243" type="passenger" depart="105.10">
        <route edges="right0A0.250.00"/>
    </vehicle>
    <vehicle id="244" type="passenger" depart="105.20">
        <route edges="left0A0 left0A0.250.00 A0right0"/>
    </vehicle>
    <vehicle id="245" type="passenger" depart="105.40">
        <route edges="bottom0A0.250.00 A0left0"/>
    </vehicle>
    <vehicle id="246" type="passenger" depart="105.65">
        <route edges="left0A0.250.00"/>
    </vehicle>
    <vehicle id="249" type="passenger" depart="106.65">
        <route edges="right0A0 right0A0.250.00 A0top0"/>
    </vehicle>
    <vehicle id="250" type="passenger" depart="107.15">
        <route edges="bottom0A0 bottom0A0.250.00 A0left0"/>
    </vehicle>
    <vehicle id="251" type="passenger" depart="107.25">
        <route edges="bottom0A0.250.00"/>
    </vehicle>
    <vehicle id="252" type="passenger" depart="107.95">
        <route edges="top0A0 top0A0.250.00 A0bottom0"/>
    </vehicle>
    <vehicle id="253" type="passenger" depart="108.00">
        <route edges="bottom0A0 bottom0A0.250.00 A0left0"/>
    </vehicle>
    <vehicle id="254" type="passenger" depart="108.50">
        <route edges="bottom0A0 bottom0A0.250.00"/>
    </vehicle>
    <vehicle id="255" type="passenger" depart="109.05">
        <route edges="right0A0.250.00 A0top0"/>
    </vehicle>
    <vehicle id="256" type="passenger" depart="109.55">
        <route edges="top0A0 top0A0.250.00 A0left0"/>
    </vehicle>
    <vehicle id="257" type="passenger" depart="109.85">
        <route edges="left0A0 left0A0.250.00 A0right0"/>
    </vehicle>
    <vehicle id="258" type="passenger" depart="110.50">
        <route edges="top0A0.250.00 A0bottom0"/>
    </vehicle>
    <vehicle id="264" type="passenger" depart="112.45">
        <route edges="bottom0A0 bottom0A0.250.00 A0left0"/>
    </vehicle>
    <vehicle id="266" type="passenger" depart="112.90">
        <route edges="bottom0A0.250.00 A0right0"/>
    </vehicle>
    <vehicle id="268" type="passenger" depart="113.25">
        <route edges="top0A0 top0A0.250.00 A0bottom0"/>
    </vehicle>
    <vehicle id="271" type="passenger" depart="113.95">
        <route edges="left0A0.250.00"/>
    </vehicle>
    <vehicle id="274" type="passenger" depart="115.85">
        <route edges="bottom0A0 bottom0A0.250.00"/>
    </vehicle>
    <vehicle id="276" type="passenger" depart="118.20">
        <route edges="bottom0A0 bottom0A0.250.00 A0right0"/>
    </vehicle>
    <vehicle id="281" type="passenger" depart="119.45">
        <route edges="right0A0 right0A0.250.00 A0left0"/>
    </vehicle>
    <vehicle id="282" type="passenger" depart="119.70">
        <route edges="top0A0.250.00 A0bottom0"/>
    </vehicle>
    <vehicle id="283" type="passenger" depart="120.45">
        <route edges="left0A0.250.00 A0top0"/>
    </vehicle>
    <vehicle id="284" type="passenger" depart="121.30">
        <route edges="left0A0.250.00"/>
    </vehicle>
    <vehicle id="285" type="passenger" depart="122.20">
        <route edges="right0A0.250.00 A0left0"/>
    </vehicle>
    <vehicle id="286" type="passenger" depart="122.20">
        <route edges="left0A0.250.00 A0top0"/>
    </vehicle>
    <vehicle id="288" type="passenger" depart="122.35">
        <route edges="right0A0.250.00 A0bottom0"/>
    </vehicle>
    <vehicle id="289" type="passenger" depart="122.35">
        <route edges="top0A0 top0A0.250.00 A0left0"/>
    </vehicle>
    <vehicle id="290" type="passenger" depart="122.55">
        <route edges="right0A0.250.00 A0left0"/>
    </vehicle>
    <vehicle id="291" type="passenger" depart="123.55">
        <route edges="bottom0A0 bottom0A0.250.00 A0top0"/>
    </vehicle>
    <vehicle id="292" type="passenger" depart="124.00">
        <route edges="bottom0A0.250.00"/>
    </vehicle>
    <vehicle id="293" type="passenger" depart="124.60">
        <route edges="top0A0.250.00 A0right0"/>
    </vehicle>
    <vehicle id="294" type="passenger" depart="125.00">
        <route edges="left0A0.250.00"/>
    </vehicle>
    <vehicle id="295" type="passenger" depart="125.80">
        <route edges="right0A0.250.00 A0left0"/>
    </vehicle>
    <vehicle id="297" type="passenger" depart="126.80">
        <route edges="top0A0.250.00 A0bottom0"/>
    </vehicle>
    <vehicle id="298" type="passenger" depart="127.00">
        <route edges="top0A0 top0A0.250.00 A0left0"/>
    </vehicle>
    <vehicle id="299" type="passenger" depart="127.35">
        <route edges="bottom0A0 bottom0A0.250.00 A0left0"/>
    </vehicle>
    <vehicle id="300" type="passenger" depart="127.70">
        <route edges="right0A0 right0A0.250.00 A0bottom0"/>
    </vehicle>
    <vehicle id="302" type="passenger" depart="130.35">
        <route edges="top0A0 top0A0.250.00 A0left0"/>
    </vehicle>
    <vehicle id="303" type="passenger" depart="131.05">
        <route edges="left0A0 left0A0.250.00"/>
    </vehicle>
    <vehicle id="304" type="passenger" depart="131.05">
        <route edges="top0A0.250.00 A0bottom0"/>
    </vehicle>
    <vehicle id="308" type="passenger" depart="131.95">
        <route edges="bottom0A0.250.00 A0right0"/>
    </vehicle>
    <vehicle id="309" type="passenger" depart="132.30">
        <route edges="right0A0.250.00"/>
    </vehicle>
    <vehicle id="310" type="passenger" depart="134.10">
        <route edges="right0A0 right0A0.250.00"/>
    </vehicle>
    <vehicle id="311" type="passenger" depart="135.00">
        <route edges="right0A0.250.00 A0bottom0"/>
    </vehicle>
    <vehicle id="312" type="passenger" depart="135.05">
        <route edges="right0A0.250.00 A0top0"/>
    </vehicle>
    <vehicle id="315" type="passenger" depart="136.05">
        <route edges="left0A0.250.00 A0right0"/>
    </vehicle>
    <vehicle id="316" type="passenger" depart="137.00">
        <route edges="top0A0.250.00 A0left0"/>
    </vehicle>
    <vehicle id="317" type="passenger" depart="137.40">
        <route edges="top0A0.250.00"/>
    </vehicle>
    <vehicle id="318" type="passenger" depart="137.80">
        <route edges="bottom0A0.250.00"/>
    </vehicle>
    <vehicle id="320" type="passenger" depart="138.05">
        <route edges="bottom0A0 bottom0A0.250.00 A0left0"/>
    </vehicle>
    <vehicle id="321" type="passenger" depart="138.30">
        <route edges="bottom0A0 bottom0A0.250.00 A0left0"/>
    </vehicle>
    <vehicle id="324" type="passenger" depart="138.95">
        <route edges="bottom0A0 bottom0A0.250.00 A0left0"/>
    </vehicle>
    <vehicle id="325" type="passenger" depart="139.35">
        <route edges="right0A0.250.00 A0top0"/>
    </vehicle>
    <vehicle id="328" type="passenger" depart="139.65">
        <route edges="bottom0A0 bottom0A0.250.00 A0top0"/>
    </vehicle>
    <vehicle id="330" type="passenger" depart="141.00">
        <route edges="right0A0.250.00"/>
    </vehicle>
    <vehicle id="333" type="passenger" depart="141.70">
        <route edges="right0A0.250.00 A0left0"/>
    </vehicle>
    <vehicle id="334" type="passenger" depart="142.35">
        <route edges="top0A0 top0A0.250.00 A0bottom0"/>
    </vehicle>
    <vehicle id="337" type="passenger" depart="142.70">
        <route edges="right0A0.250.00 A0left0"/>
    </vehicle>
    <vehicle id="338" type="passenger" depart="143.75">
        <route edges="left0A0.250.00 A0top0"/>
    </vehicle>
    <vehicle id="339" type="passenger" depart="143.90">
        <route edges="right0A0 right0A0.250.00 A0bottom0"/>
    </vehicle>
    <vehicle id="343" type="passenger" depart="145.90">
        <route edges="bottom0A0 bottom0A0.250.00 A0right0"/>
    </vehicle>
    <vehicle id="346" type="passenger" depart="147.65">
        <route edges="top0A0 top0A0.250.00"/>
    </vehicle>
    <vehicle id="347" type="passenger" depart="147.95">
        <route edges="right0A0.250.00 A0left0"/>
    </vehicle>
    <vehicle id="348" type="passenger" depart="148.40">
        <route edges="left0A0 left0A0.250.00 A0bottom0"/>
    </vehicle>
    <vehicle id="349" type="passenger" depart="148.60">
        <route edges="right0A0 right0A0.250.00 A0top0"/>
    </vehicle>
    <vehicle id="351" type="passenger" depart="150.20">
        <route edges="left0A0 left0A0.250.00 A0bottom0"/>
    </vehicle>
    <vehicle id="353" type="passenger" depart="151.90">
        <route edges="top0A0 top0A0.250.00"/>
    </vehicle>
    <vehicle id="356" type="passenger" depart="156.50">
        <route edges="bottom0A0.250.00 A0right0"/>
    </vehicle>
    <vehicle id="357" type="passenger" depart="156.90">
        <route edges="top0A0 top0A0.250.00 A0bottom0"/>
    </vehicle>
    <vehicle id="358" type="passenger" depart="157.05">
        <route edges="top0A0.250.00"/>
    </vehicle>
    <vehicle id="359" type="passenger" depart="157.35">
        <route edges="top0A0.250.00 A0bottom0"/>
    </vehicle>
    <vehicle id="360" type="passenger" depart="158.00">
        <route edges="top0A0.250.00 A0left0"/>
    </vehicle>
    <vehicle id="361" type="passenger" depart="158.00">
        <route edges="top0A0.250.00 A0right0"/>
    </vehicle>
    <vehicle id="362" type="passenger" depart="159.50">
        <route edges="bottom0A0 bottom0A0.250.00 A0right0"/>
    </vehicle>
    <vehicle id="363" type="passenger" depart="160.25">
        <route edges="right0A0 right0A0.250.00"/>
    </vehicle>
    <vehicle id="368" type="passenger" depart="162.45">
        <route edges="bottom0A0 bottom0A0.250.00 A0right0"/>
    </vehicle>
    <vehicle id="371" type="passenger" depart="163.95">
        <route edges="right0A0.250.00"/>
    </vehicle>
    <vehicle id="373" type="passenger" depart="164.35">
        <route edges="top0A0.250.00 A0right0"/>
    </vehicle>
    <vehicle id="376" type="passenger" depart="165.00">
        <route edges="right0A0 right0A0.250.00 A0left0"/>
    </vehicle>
    <vehicle id="377" type="passenger" depart="165.55">
        <route edges="right0A0.250.00 A0top0"/>
    </vehicle>
    <vehicle id="381" type="passenger" depart="166.15">
        <route edges="top0A0 top0A0.250.00 A0bottom0"/>
    </vehicle>
    <vehicle id="384" type="passenger" depart="167.15">
        <route edges="bottom0A0 bottom0A0.250.00 A0right0"/>
    </vehicle>
    <vehicle id="387" type="passenger" depart="169.95">
        <route edges="top0A0.250.00 A0bottom0"/>
    </vehicle>
    <vehicle id="388" type="passenger" depart="170.50">
        <route edges="bottom0A0 bottom0A0.250.00 A0top0"/>
    </vehicle>
    <vehicle id="393" type="passenger" depart="172.80">
        <route edges="right0A0 right0A0.250.00 A0bottom0"/>
    </vehicle>
    <vehicle id="394" type="passenger" depart="173.45">
        <route edges="right0A0 right0A0.250.00 A0top0"/>
    </vehicle>
    <vehicle id="395" type="passenger" depart="174.35">
        <route edges="bottom0A0 bottom0A0.250.00 A0top0"/>
    </vehicle>
    <vehicle id="396" type="passenger" depart="176.05">
        <route edges="top0A0 top0A0.250.00 A0bottom0"/>
    </vehicle>
    <vehicle id="397" type="passenger" depart="177.15">
        <route edges="top0A0.250.00 A0right0"/>
    </vehicle>
    <vehicle id="400" type="passenger" depart="177.90">
        <route edges="top0A0 top0A0.250.00"/>
    </vehicle>
    <vehicle id="401" type="passenger" depart="177.90">
        <route edges="right0A0.250.00 A0bottom0"/>
    </vehicle>
    <vehicle id="403" type="passenger" depart="180.00">
        <route edges="bottom0A0.250.00 A0top0"/>
    </vehicle>
    <vehicle id="406" type="passenger" depart="181.20">
        <route edges="left0A0 left0A0.250.00 A0top0"/>
    </vehicle>
    <vehicle id="407" type="passenger" depart="182.30">
        <route edges="right0A0.250.00"/>
    </vehicle>
    <vehicle id="410" type="passenger" depart="184.25">
        <route edges="bottom0A0 bottom0A0.250.00 A0left0"/>
    </vehicle>
    <vehicle id="411" type="passenger" depart="186.40">
        <route edges="bottom0A0 bottom0A0.250.00 A0right0"/>
    </vehicle>
    <vehicle id="417" type="passenger" depart="189.65">
        <route edges="bottom0A0 bottom0A0.250.00 A0top0"/>
    </vehicle>
    <vehicle id="418" type="passenger" depart="190.00">
        <route edges="bottom0A0.250.00"/>
    </vehicle>
    <vehicle id="419" type="passenger" depart="190.05">
        <route edges="left0A0.250.00 A0bottom0"/>
    </vehicle>
    <vehicle id="420" type="passenger" depart="190.15">
        <route edges="top0A0 top0A0.250.00 A0left0"/>
    </vehicle>
    <vehicle id="422" type="passenger" depart="192.15">
        <route edges="left0A0.250.00 A0bottom0"/>
    </vehicle>
    <vehicle id="424" type="passenger" depart="194.05">
        <route edges="bottom0A0 bottom0A0.250.00 A0left0"/>
    </vehicle>
    <vehicle id="428" type="passenger" depart="195.85">
        <route edges="bottom0A0 bottom0A0.250.00"/>
    </vehicle>
    <vehicle id="431" type="passenger" depart="196.50">
        <route edges="top0A0 top0A0.250.00"/>
    </vehicle>
    <vehicle id="432" type="passenger" depart="197.30">
        <route edges="left0A0 left0A0.250.00"/>
    </vehicle>
    <vehicle id="433" type="passenger" depart="197.45">
        <route edges="left0A0 left0A0.250.00 A0right0"/>
    </vehicle>
    <vehicle id="436" type="passenger" depart="199.15">
        <route edges="top0A0.250.00 A0bottom0"/>
    </vehicle>
    <vehicle id="437" type="passenger" depart="200.75">
        <route edges="left0A0 left0A0.250.00 A0top0"/>
    </vehicle>
    <vehicle id="440" type="passenger" depart="202.15">
        <route edges="left0A0 left0A0.250.00 A0right0"/>
    </vehicle>
    <vehicle id="442" type="passenger" depart="202.95">
        <route edges="bottom0A0.250.00 A0right0"/>
    </vehicle>
    <vehicle id="446" type="passenger" depart="204.80">
        <route edges="top0A0 top0A0.250.00 A0bottom0"/>
    </vehicle>
    <vehicle id="447" type="passenger" depart="205.55">
        <route edges="left0A0 left0A0.250.00"/>
    </vehicle>
    <vehicle id="448" type="passenger" depart="205.60">
        <route edges="left0A0 left0A0.250.00 A0top0"/>
    </vehicle>