<?xml version="1.0" encoding="UTF-8"?>

<!-- generated on 2023-02-12 18:46:58 by Eclipse SUMO netgenerate Version 1.15.0
<configuration xmlns:xsi="http://www.w3.org/2001/XMLSchema-instance" xsi:noNamespaceSchemaLocation="http://sumo.dlr.de/xsd/netgenerateConfiguration.xsd">

    <grid_network>
        <grid value="true"/>
        <grid.number value="5"/>
        <grid.length value="150"/>
        <grid.attach-length value="150"/>
    </grid_network>

    <output>
        <output-file value="/home/franky3er/Documents/code/HieraGLight/scenarios/grid/5x5-150m/train/66-scenario/network.net.xml"/>
    </output>

    <processing>
        <turn-lanes value="1"/>
        <turn-lanes.length value="70"/>
    </processing>

    <building_defaults>
        <default.lanenumber value="2"/>
        <default-junction-type value="traffic_light"/>
    </building_defaults>

    <tls_building>
        <tls.discard-simple value="true"/>
    </tls_building>

    <junctions>
        <no-turnarounds value="true"/>
    </junctions>

</configuration>
-->

<net version="1.9" junctionCornerDetail="5" limitTurnSpeed="5.50" xmlns:xsi="http://www.w3.org/2001/XMLSchema-instance" xsi:noNamespaceSchemaLocation="http://sumo.dlr.de/xsd/net_file.xsd">

    <location netOffset="0.00,0.00" convBoundary="0.00,0.00,900.00,900.00" origBoundary="0.00,0.00,900.00,900.00" projParameter="!"/>

    <edge id=":A0_0" function="internal">
        <lane id=":A0_0_0" index="0" speed="6.51" length="9.03" shape="143.60,162.00 143.25,159.55 142.20,157.80 140.45,156.75 138.00,156.40"/>
    </edge>
    <edge id=":A0_1" function="internal">
        <lane id=":A0_1_0" index="0" speed="13.89" length="24.00" shape="143.60,162.00 143.60,138.00"/>
        <lane id=":A0_1_1" index="1" speed="13.89" length="24.00" shape="146.80,162.00 146.80,138.00"/>
    </edge>
    <edge id=":A0_3" function="internal">
        <lane id=":A0_3_0" index="0" speed="9.84" length="6.30" shape="150.00,162.00 150.71,155.74"/>
    </edge>
    <edge id=":A0_16" function="internal">
        <lane id=":A0_16_0" index="0" speed="9.84" length="15.70" shape="150.71,155.74 150.75,155.35 153.00,150.60 156.75,147.75 162.00,146.80"/>
    </edge>
    <edge id=":A0_4" function="internal">
        <lane id=":A0_4_0" index="0" speed="6.51" length="9.03" shape="162.00,156.40 159.55,156.75 157.80,157.80 156.75,159.55 156.40,162.00"/>
    </edge>
    <edge id=":A0_5" function="internal">
        <lane id=":A0_5_0" index="0" speed="13.89" length="24.00" shape="162.00,156.40 138.00,156.40"/>
        <lane id=":A0_5_1" index="1" speed="13.89" length="24.00" shape="162.00,153.20 138.00,153.20"/>
    </edge>
    <edge id=":A0_7" function="internal">
        <lane id=":A0_7_0" index="0" speed="9.84" length="6.30" shape="162.00,150.00 155.74,149.29"/>
    </edge>
    <edge id=":A0_17" function="internal">
        <lane id=":A0_17_0" index="0" speed="9.84" length="15.70" shape="155.74,149.29 155.35,149.25 150.60,147.00 147.75,143.25 146.80,138.00"/>
    </edge>
    <edge id=":A0_8" function="internal">
        <lane id=":A0_8_0" index="0" speed="6.51" length="9.03" shape="156.40,138.00 156.75,140.45 157.80,142.20 159.55,143.25 162.00,143.60"/>
    </edge>
    <edge id=":A0_9" function="internal">
        <lane id=":A0_9_0" index="0" speed="13.89" length="24.00" shape="156.40,138.00 156.40,162.00"/>
        <lane id=":A0_9_1" index="1" speed="13.89" length="24.00" shape="153.20,138.00 153.20,162.00"/>
    </edge>
    <edge id=":A0_11" function="internal">
        <lane id=":A0_11_0" index="0" speed="9.84" length="6.30" shape="150.00,138.00 149.29,144.26"/>
    </edge>
    <edge id=":A0_18" function="internal">
        <lane id=":A0_18_0" index="0" speed="9.84" length="15.70" shape="149.29,144.26 149.25,144.65 147.00,149.40 143.25,152.25 138.00,153.20"/>
    </edge>
    <edge id=":A0_12" function="internal">
        <lane id=":A0_12_0" index="0" speed="6.51" length="9.03" shape="138.00,143.60 140.45,143.25 142.20,142.20 143.25,140.45 143.60,138.00"/>
    </edge>
    <edge id=":A0_13" function="internal">
        <lane id=":A0_13_0" index="0" speed="13.89" length="24.00" shape="138.00,143.60 162.00,143.60"/>
        <lane id=":A0_13_1" index="1" speed="13.89" length="24.00" shape="138.00,146.80 162.00,146.80"/>
    </edge>
    <edge id=":A0_15" function="internal">
        <lane id=":A0_15_0" index="0" speed="9.84" length="6.30" shape="138.00,150.00 144.26,150.71"/>
    </edge>
    <edge id=":A0_19" function="internal">
        <lane id=":A0_19_0" index="0" speed="9.84" length="15.70" shape="144.26,150.71 144.65,150.75 149.40,153.00 152.25,156.75 153.20,162.00"/>
    </edge>
    <edge id=":A0A1.80.00_0" function="internal">
        <lane id=":A0A1.80.00_0_0" index="0" speed="13.89" length="8.27" shape="156.40,226.00 156.40,234.00"/>
        <lane id=":A0A1.80.00_0_1" index="1" speed="13.89" length="8.27" shape="153.20,226.00 153.20,234.00"/>
        <lane id=":A0A1.80.00_0_2" index="2" speed="13.89" length="8.27" shape="153.20,226.00 152.70,228.46 151.60,230.00 150.50,231.54 150.00,234.00"/>
    </edge>
    <edge id=":A0B0.80.00_0" function="internal">
        <lane id=":A0B0.80.00_0_0" index="0" speed="13.89" length="8.27" shape="226.00,143.60 234.00,143.60"/>
        <lane id=":A0B0.80.00_0_1" index="1" speed="13.89" length="8.27" shape="226.00,146.80 234.00,146.80"/>
        <lane id=":A0B0.80.00_0_2" index="2" speed="13.89" length="8.27" shape="226.00,146.80 228.46,147.30 230.00,148.40 231.54,149.50 234.00,150.00"/>
    </edge>
    <edge id=":A1_0" function="internal">
        <lane id=":A1_0_0" index="0" speed="6.51" length="9.03" shape="143.60,312.00 143.25,309.55 142.20,307.80 140.45,306.75 138.00,306.40"/>
    </edge>
    <edge id=":A1_1" function="internal">
        <lane id=":A1_1_0" index="0" speed="13.89" length="24.00" shape="143.60,312.00 143.60,288.00"/>
        <lane id=":A1_1_1" index="1" speed="13.89" length="24.00" shape="146.80,312.00 146.80,288.00"/>
    </edge>
    <edge id=":A1_3" function="internal">
        <lane id=":A1_3_0" index="0" speed="9.84" length="6.30" shape="150.00,312.00 150.71,305.74"/>
    </edge>
    <edge id=":A1_16" function="internal">
        <lane id=":A1_16_0" index="0" speed="9.84" length="15.70" shape="150.71,305.74 150.75,305.35 153.00,300.60 156.75,297.75 162.00,296.80"/>
    </edge>
    <edge id=":A1_4" function="internal">
        <lane id=":A1_4_0" index="0" speed="6.51" length="9.03" shape="162.00,306.40 159.55,306.75 157.80,307.80 156.75,309.55 156.40,312.00"/>
    </edge>
    <edge id=":A1_5" function="internal">
        <lane id=":A1_5_0" index="0" speed="13.89" length="24.00" shape="162.00,306.40 138.00,306.40"/>
        <lane id=":A1_5_1" index="1" speed="13.89" length="24.00" shape="162.00,303.20 138.00,303.20"/>
    </edge>
    <edge id=":A1_7" function="internal">
        <lane id=":A1_7_0" index="0" speed="9.84" length="6.30" shape="162.00,300.00 155.74,299.29"/>
    </edge>
    <edge id=":A1_17" function="internal">
        <lane id=":A1_17_0" index="0" speed="9.84" length="15.70" shape="155.74,299.29 155.35,299.25 150.60,297.00 147.75,293.25 146.80,288.00"/>
    </edge>
    <edge id=":A1_8" function="internal">
        <lane id=":A1_8_0" index="0" speed="6.51" length="9.03" shape="156.40,288.00 156.75,290.45 157.80,292.20 159.55,293.25 162.00,293.60"/>
    </edge>
    <edge id=":A1_9" function="internal">
        <lane id=":A1_9_0" index="0" speed="13.89" length="24.00" shape="156.40,288.00 156.40,312.00"/>
        <lane id=":A1_9_1" index="1" speed="13.89" length="24.00" shape="153.20,288.00 153.20,312.00"/>
    </edge>
    <edge id=":A1_11" function="internal">
        <lane id=":A1_11_0" index="0" speed="9.84" length="6.30" shape="150.00,288.00 149.29,294.26"/>
    </edge>
    <edge id=":A1_18" function="internal">
        <lane id=":A1_18_0" index="0" speed="9.84" length="15.70" shape="149.29,294.26 149.25,294.65 147.00,299.40 143.25,302.25 138.00,303.20"/>
    </edge>
    <edge id=":A1_12" function="internal">
        <lane id=":A1_12_0" index="0" speed="6.51" length="9.03" shape="138.00,293.60 140.45,293.25 142.20,292.20 143.25,290.45 143.60,288.00"/>
    </edge>
    <edge id=":A1_13" function="internal">
        <lane id=":A1_13_0" index="0" speed="13.89" length="24.00" shape="138.00,293.60 162.00,293.60"/>
        <lane id=":A1_13_1" index="1" speed="13.89" length="24.00" shape="138.00,296.80 162.00,296.80"/>
    </edge>
    <edge id=":A1_15" function="internal">
        <lane id=":A1_15_0" index="0" speed="9.84" length="6.30" shape="138.00,300.00 144.26,300.71"/>
    </edge>
    <edge id=":A1_19" function="internal">
        <lane id=":A1_19_0" index="0" speed="9.84" length="15.70" shape="144.26,300.71 144.65,300.75 149.40,303.00 152.25,306.75 153.20,312.00"/>
    </edge>
    <edge id=":A1A0.80.00_0" function="internal">
        <lane id=":A1A0.80.00_0_0" index="0" speed="13.89" length="8.27" shape="143.60,224.00 143.60,216.00"/>
        <lane id=":A1A0.80.00_0_1" index="1" speed="13.89" length="8.27" shape="146.80,224.00 146.80,216.00"/>
        <lane id=":A1A0.80.00_0_2" index="2" speed="13.89" length="8.27" shape="146.80,224.00 147.30,221.54 148.40,220.00 149.50,218.46 150.00,216.00"/>
    </edge>
    <edge id=":A1A2.80.00_0" function="internal">
        <lane id=":A1A2.80.00_0_0" index="0" speed="13.89" length="8.27" shape="156.40,376.00 156.40,384.00"/>
        <lane id=":A1A2.80.00_0_1" index="1" speed="13.89" length="8.27" shape="153.20,376.00 153.20,384.00"/>
        <lane id=":A1A2.80.00_0_2" index="2" speed="13.89" length="8.27" shape="153.20,376.00 152.70,378.46 151.60,380.00 150.50,381.54 150.00,384.00"/>
    </edge>
    <edge id=":A1B1.80.00_0" function="internal">
        <lane id=":A1B1.80.00_0_0" index="0" speed="13.89" length="8.27" shape="226.00,293.60 234.00,293.60"/>
        <lane id=":A1B1.80.00_0_1" index="1" speed="13.89" length="8.27" shape="226.00,296.80 234.00,296.80"/>
        <lane id=":A1B1.80.00_0_2" index="2" speed="13.89" length="8.27" shape="226.00,296.80 228.46,297.30 230.00,298.40 231.54,299.50 234.00,300.00"/>
    </edge>
    <edge id=":A2_0" function="internal">
        <lane id=":A2_0_0" index="0" speed="6.51" length="9.03" shape="143.60,462.00 143.25,459.55 142.20,457.80 140.45,456.75 138.00,456.40"/>
    </edge>
    <edge id=":A2_1" function="internal">
        <lane id=":A2_1_0" index="0" speed="13.89" length="24.00" shape="143.60,462.00 143.60,438.00"/>
        <lane id=":A2_1_1" index="1" speed="13.89" length="24.00" shape="146.80,462.00 146.80,438.00"/>
    </edge>
    <edge id=":A2_3" function="internal">
        <lane id=":A2_3_0" index="0" speed="9.84" length="6.30" shape="150.00,462.00 150.71,455.74"/>
    </edge>
    <edge id=":A2_16" function="internal">
        <lane id=":A2_16_0" index="0" speed="9.84" length="15.70" shape="150.71,455.74 150.75,455.35 153.00,450.60 156.75,447.75 162.00,446.80"/>
    </edge>
    <edge id=":A2_4" function="internal">
        <lane id=":A2_4_0" index="0" speed="6.51" length="9.03" shape="162.00,456.40 159.55,456.75 157.80,457.80 156.75,459.55 156.40,462.00"/>
    </edge>
    <edge id=":A2_5" function="internal">
        <lane id=":A2_5_0" index="0" speed="13.89" length="24.00" shape="162.00,456.40 138.00,456.40"/>
        <lane id=":A2_5_1" index="1" speed="13.89" length="24.00" shape="162.00,453.20 138.00,453.20"/>
    </edge>
    <edge id=":A2_7" function="internal">
        <lane id=":A2_7_0" index="0" speed="9.84" length="6.30" shape="162.00,450.00 155.74,449.29"/>
    </edge>
    <edge id=":A2_17" function="internal">
        <lane id=":A2_17_0" index="0" speed="9.84" length="15.70" shape="155.74,449.29 155.35,449.25 150.60,447.00 147.75,443.25 146.80,438.00"/>
    </edge>
    <edge id=":A2_8" function="internal">
        <lane id=":A2_8_0" index="0" speed="6.51" length="9.03" shape="156.40,438.00 156.75,440.45 157.80,442.20 159.55,443.25 162.00,443.60"/>
    </edge>
    <edge id=":A2_9" function="internal">
        <lane id=":A2_9_0" index="0" speed="13.89" length="24.00" shape="156.40,438.00 156.40,462.00"/>
        <lane id=":A2_9_1" index="1" speed="13.89" length="24.00" shape="153.20,438.00 153.20,462.00"/>
    </edge>
    <edge id=":A2_11" function="internal">
        <lane id=":A2_11_0" index="0" speed="9.84" length="6.30" shape="150.00,438.00 149.29,444.26"/>
    </edge>
    <edge id=":A2_18" function="internal">
        <lane id=":A2_18_0" index="0" speed="9.84" length="15.70" shape="149.29,444.26 149.25,444.65 147.00,449.40 143.25,452.25 138.00,453.20"/>
    </edge>
    <edge id=":A2_12" function="internal">
        <lane id=":A2_12_0" index="0" speed="6.51" length="9.03" shape="138.00,443.60 140.45,443.25 142.20,442.20 143.25,440.45 143.60,438.00"/>
    </edge>
    <edge id=":A2_13" function="internal">
        <lane id=":A2_13_0" index="0" speed="13.89" length="24.00" shape="138.00,443.60 162.00,443.60"/>
        <lane id=":A2_13_1" index="1" speed="13.89" length="24.00" shape="138.00,446.80 162.00,446.80"/>
    </edge>
    <edge id=":A2_15" function="internal">
        <lane id=":A2_15_0" index="0" speed="9.84" length="6.30" shape="138.00,450.00 144.26,450.71"/>
    </edge>
    <edge id=":A2_19" function="internal">
        <lane id=":A2_19_0" index="0" speed="9.84" length="15.70" shape="144.26,450.71 144.65,450.75 149.40,453.00 152.25,456.75 153.20,462.00"/>
    </edge>
    <edge id=":A2A1.80.00_0" function="internal">
        <lane id=":A2A1.80.00_0_0" index="0" speed="13.89" length="8.27" shape="143.60,374.00 143.60,366.00"/>
        <lane id=":A2A1.80.00_0_1" index="1" speed="13.89" length="8.27" shape="146.80,374.00 146.80,366.00"/>
        <lane id=":A2A1.80.00_0_2" index="2" speed="13.89" length="8.27" shape="146.80,374.00 147.30,371.54 148.40,370.00 149.50,368.46 150.00,366.00"/>
    </edge>
    <edge id=":A2A3.80.00_0" function="internal">
        <lane id=":A2A3.80.00_0_0" index="0" speed="13.89" length="8.27" shape="156.40,526.00 156.40,534.00"/>
        <lane id=":A2A3.80.00_0_1" index="1" speed="13.89" length="8.27" shape="153.20,526.00 153.20,534.00"/>
        <lane id=":A2A3.80.00_0_2" index="2" speed="13.89" length="8.27" shape="153.20,526.00 152.70,528.46 151.60,530.00 150.50,531.54 150.00,534.00"/>
    </edge>
    <edge id=":A2B2.80.00_0" function="internal">
        <lane id=":A2B2.80.00_0_0" index="0" speed="13.89" length="8.27" shape="226.00,443.60 234.00,443.60"/>
        <lane id=":A2B2.80.00_0_1" index="1" speed="13.89" length="8.27" shape="226.00,446.80 234.00,446.80"/>
        <lane id=":A2B2.80.00_0_2" index="2" speed="13.89" length="8.27" shape="226.00,446.80 228.46,447.30 230.00,448.40 231.54,449.50 234.00,450.00"/>
    </edge>
    <edge id=":A3_0" function="internal">
        <lane id=":A3_0_0" index="0" speed="6.51" length="9.03" shape="143.60,612.00 143.25,609.55 142.20,607.80 140.45,606.75 138.00,606.40"/>
    </edge>
    <edge id=":A3_1" function="internal">
        <lane id=":A3_1_0" index="0" speed="13.89" length="24.00" shape="143.60,612.00 143.60,588.00"/>
        <lane id=":A3_1_1" index="1" speed="13.89" length="24.00" shape="146.80,612.00 146.80,588.00"/>
    </edge>
    <edge id=":A3_3" function="internal">
        <lane id=":A3_3_0" index="0" speed="9.84" length="6.30" shape="150.00,612.00 150.71,605.74"/>
    </edge>
    <edge id=":A3_16" function="internal">
        <lane id=":A3_16_0" index="0" speed="9.84" length="15.70" shape="150.71,605.74 150.75,605.35 153.00,600.60 156.75,597.75 162.00,596.80"/>
    </edge>
    <edge id=":A3_4" function="internal">
        <lane id=":A3_4_0" index="0" speed="6.51" length="9.03" shape="162.00,606.40 159.55,606.75 157.80,607.80 156.75,609.55 156.40,612.00"/>
    </edge>
    <edge id=":A3_5" function="internal">
        <lane id=":A3_5_0" index="0" speed="13.89" length="24.00" shape="162.00,606.40 138.00,606.40"/>
        <lane id=":A3_5_1" index="1" speed="13.89" length="24.00" shape="162.00,603.20 138.00,603.20"/>
    </edge>
    <edge id=":A3_7" function="internal">
        <lane id=":A3_7_0" index="0" speed="9.84" length="6.30" shape="162.00,600.00 155.74,599.29"/>
    </edge>
    <edge id=":A3_17" function="internal">
        <lane id=":A3_17_0" index="0" speed="9.84" length="15.70" shape="155.74,599.29 155.35,599.25 150.60,597.00 147.75,593.25 146.80,588.00"/>
    </edge>
    <edge id=":A3_8" function="internal">
        <lane id=":A3_8_0" index="0" speed="6.51" length="9.03" shape="156.40,588.00 156.75,590.45 157.80,592.20 159.55,593.25 162.00,593.60"/>
    </edge>
    <edge id=":A3_9" function="internal">
        <lane id=":A3_9_0" index="0" speed="13.89" length="24.00" shape="156.40,588.00 156.40,612.00"/>
        <lane id=":A3_9_1" index="1" speed="13.89" length="24.00" shape="153.20,588.00 153.20,612.00"/>
    </edge>
    <edge id=":A3_11" function="internal">
        <lane id=":A3_11_0" index="0" speed="9.84" length="6.30" shape="150.00,588.00 149.29,594.26"/>
    </edge>
    <edge id=":A3_18" function="internal">
        <lane id=":A3_18_0" index="0" speed="9.84" length="15.70" shape="149.29,594.26 149.25,594.65 147.00,599.40 143.25,602.25 138.00,603.20"/>
    </edge>
    <edge id=":A3_12" function="internal">
        <lane id=":A3_12_0" index="0" speed="6.51" length="9.03" shape="138.00,593.60 140.45,593.25 142.20,592.20 143.25,590.45 143.60,588.00"/>
    </edge>
    <edge id=":A3_13" function="internal">
        <lane id=":A3_13_0" index="0" speed="13.89" length="24.00" shape="138.00,593.60 162.00,593.60"/>
        <lane id=":A3_13_1" index="1" speed="13.89" length="24.00" shape="138.00,596.80 162.00,596.80"/>
    </edge>
    <edge id=":A3_15" function="internal">
        <lane id=":A3_15_0" index="0" speed="9.84" length="6.30" shape="138.00,600.00 144.26,600.71"/>
    </edge>
    <edge id=":A3_19" function="internal">
        <lane id=":A3_19_0" index="0" speed="9.84" length="15.70" shape="144.26,600.71 144.65,600.75 149.40,603.00 152.25,606.75 153.20,612.00"/>
    </edge>
    <edge id=":A3A2.80.00_0" function="internal">
        <lane id=":A3A2.80.00_0_0" index="0" speed="13.89" length="8.27" shape="143.60,524.00 143.60,516.00"/>
        <lane id=":A3A2.80.00_0_1" index="1" speed="13.89" length="8.27" shape="146.80,524.00 146.80,516.00"/>
        <lane id=":A3A2.80.00_0_2" index="2" speed="13.89" length="8.27" shape="146.80,524.00 147.30,521.54 148.40,520.00 149.50,518.46 150.00,516.00"/>
    </edge>
    <edge id=":A3A4.80.00_0" function="internal">
        <lane id=":A3A4.80.00_0_0" index="0" speed="13.89" length="8.27" shape="156.40,676.00 156.40,684.00"/>
        <lane id=":A3A4.80.00_0_1" index="1" speed="13.89" length="8.27" shape="153.20,676.00 153.20,684.00"/>
        <lane id=":A3A4.80.00_0_2" index="2" speed="13.89" length="8.27" shape="153.20,676.00 152.70,678.46 151.60,680.00 150.50,681.54 150.00,684.00"/>
    </edge>
    <edge id=":A3B3.80.00_0" function="internal">
        <lane id=":A3B3.80.00_0_0" index="0" speed="13.89" length="8.27" shape="226.00,593.60 234.00,593.60"/>
        <lane id=":A3B3.80.00_0_1" index="1" speed="13.89" length="8.27" shape="226.00,596.80 234.00,596.80"/>
        <lane id=":A3B3.80.00_0_2" index="2" speed="13.89" length="8.27" shape="226.00,596.80 228.46,597.30 230.00,598.40 231.54,599.50 234.00,600.00"/>
    </edge>
    <edge id=":A4_0" function="internal">
        <lane id=":A4_0_0" index="0" speed="6.51" length="9.03" shape="143.60,762.00 143.25,759.55 142.20,757.80 140.45,756.75 138.00,756.40"/>
    </edge>
    <edge id=":A4_1" function="internal">
        <lane id=":A4_1_0" index="0" speed="13.89" length="24.00" shape="143.60,762.00 143.60,738.00"/>
        <lane id=":A4_1_1" index="1" speed="13.89" length="24.00" shape="146.80,762.00 146.80,738.00"/>
    </edge>
    <edge id=":A4_3" function="internal">
        <lane id=":A4_3_0" index="0" speed="9.84" length="6.30" shape="150.00,762.00 150.71,755.74"/>
    </edge>
    <edge id=":A4_16" function="internal">
        <lane id=":A4_16_0" index="0" speed="9.84" length="15.70" shape="150.71,755.74 150.75,755.35 153.00,750.60 156.75,747.75 162.00,746.80"/>
    </edge>
    <edge id=":A4_4" function="internal">
        <lane id=":A4_4_0" index="0" speed="6.51" length="9.03" shape="162.00,756.40 159.55,756.75 157.80,757.80 156.75,759.55 156.40,762.00"/>
    </edge>
    <edge id=":A4_5" function="internal">
        <lane id=":A4_5_0" index="0" speed="13.89" length="24.00" shape="162.00,756.40 138.00,756.40"/>
        <lane id=":A4_5_1" index="1" speed="13.89" length="24.00" shape="162.00,753.20 138.00,753.20"/>
    </edge>
    <edge id=":A4_7" function="internal">
        <lane id=":A4_7_0" index="0" speed="9.84" length="6.30" shape="162.00,750.00 155.74,749.29"/>
    </edge>
    <edge id=":A4_17" function="internal">
        <lane id=":A4_17_0" index="0" speed="9.84" length="15.70" shape="155.74,749.29 155.35,749.25 150.60,747.00 147.75,743.25 146.80,738.00"/>
    </edge>
    <edge id=":A4_8" function="internal">
        <lane id=":A4_8_0" index="0" speed="6.51" length="9.03" shape="156.40,738.00 156.75,740.45 157.80,742.20 159.55,743.25 162.00,743.60"/>
    </edge>
    <edge id=":A4_9" function="internal">
        <lane id=":A4_9_0" index="0" speed="13.89" length="24.00" shape="156.40,738.00 156.40,762.00"/>
        <lane id=":A4_9_1" index="1" speed="13.89" length="24.00" shape="153.20,738.00 153.20,762.00"/>
    </edge>
    <edge id=":A4_11" function="internal">
        <lane id=":A4_11_0" index="0" speed="9.84" length="6.30" shape="150.00,738.00 149.29,744.26"/>
    </edge>
    <edge id=":A4_18" function="internal">
        <lane id=":A4_18_0" index="0" speed="9.84" length="15.70" shape="149.29,744.26 149.25,744.65 147.00,749.40 143.25,752.25 138.00,753.20"/>
    </edge>
    <edge id=":A4_12" function="internal">
        <lane id=":A4_12_0" index="0" speed="6.51" length="9.03" shape="138.00,743.60 140.45,743.25 142.20,742.20 143.25,740.45 143.60,738.00"/>
    </edge>
    <edge id=":A4_13" function="internal">
        <lane id=":A4_13_0" index="0" speed="13.89" length="24.00" shape="138.00,743.60 162.00,743.60"/>
        <lane id=":A4_13_1" index="1" speed="13.89" length="24.00" shape="138.00,746.80 162.00,746.80"/>
    </edge>
    <edge id=":A4_15" function="internal">
        <lane id=":A4_15_0" index="0" speed="9.84" length="6.30" shape="138.00,750.00 144.26,750.71"/>
    </edge>
    <edge id=":A4_19" function="internal">
        <lane id=":A4_19_0" index="0" speed="9.84" length="15.70" shape="144.26,750.71 144.65,750.75 149.40,753.00 152.25,756.75 153.20,762.00"/>
    </edge>
    <edge id=":A4A3.80.00_0" function="internal">
        <lane id=":A4A3.80.00_0_0" index="0" speed="13.89" length="8.27" shape="143.60,674.00 143.60,666.00"/>
        <lane id=":A4A3.80.00_0_1" index="1" speed="13.89" length="8.27" shape="146.80,674.00 146.80,666.00"/>
        <lane id=":A4A3.80.00_0_2" index="2" speed="13.89" length="8.27" shape="146.80,674.00 147.30,671.54 148.40,670.00 149.50,668.46 150.00,666.00"/>
    </edge>
    <edge id=":A4B4.80.00_0" function="internal">
        <lane id=":A4B4.80.00_0_0" index="0" speed="13.89" length="8.27" shape="226.00,743.60 234.00,743.60"/>
        <lane id=":A4B4.80.00_0_1" index="1" speed="13.89" length="8.27" shape="226.00,746.80 234.00,746.80"/>
        <lane id=":A4B4.80.00_0_2" index="2" speed="13.89" length="8.27" shape="226.00,746.80 228.46,747.30 230.00,748.40 231.54,749.50 234.00,750.00"/>
    </edge>
    <edge id=":B0_0" function="internal">
        <lane id=":B0_0_0" index="0" speed="6.51" length="9.03" shape="293.60,162.00 293.25,159.55 292.20,157.80 290.45,156.75 288.00,156.40"/>
    </edge>
    <edge id=":B0_1" function="internal">
        <lane id=":B0_1_0" index="0" speed="13.89" length="24.00" shape="293.60,162.00 293.60,138.00"/>
        <lane id=":B0_1_1" index="1" speed="13.89" length="24.00" shape="296.80,162.00 296.80,138.00"/>
    </edge>
    <edge id=":B0_3" function="internal">
        <lane id=":B0_3_0" index="0" speed="9.84" length="6.30" shape="300.00,162.00 300.71,155.74"/>
    </edge>
    <edge id=":B0_16" function="internal">
        <lane id=":B0_16_0" index="0" speed="9.84" length="15.70" shape="300.71,155.74 300.75,155.35 303.00,150.60 306.75,147.75 312.00,146.80"/>
    </edge>
    <edge id=":B0_4" function="internal">
        <lane id=":B0_4_0" index="0" speed="6.51" length="9.03" shape="312.00,156.40 309.55,156.75 307.80,157.80 306.75,159.55 306.40,162.00"/>
    </edge>
    <edge id=":B0_5" function="internal">
        <lane id=":B0_5_0" index="0" speed="13.89" length="24.00" shape="312.00,156.40 288.00,156.40"/>
        <lane id=":B0_5_1" index="1" speed="13.89" length="24.00" shape="312.00,153.20 288.00,153.20"/>
    </edge>
    <edge id=":B0_7" function="internal">
        <lane id=":B0_7_0" index="0" speed="9.84" length="6.30" shape="312.00,150.00 305.74,149.29"/>
    </edge>
    <edge id=":B0_17" function="internal">
        <lane id=":B0_17_0" index="0" speed="9.84" length="15.70" shape="305.74,149.29 305.35,149.25 300.60,147.00 297.75,143.25 296.80,138.00"/>
    </edge>
    <edge id=":B0_8" function="internal">
        <lane id=":B0_8_0" index="0" speed="6.51" length="9.03" shape="306.40,138.00 306.75,140.45 307.80,142.20 309.55,143.25 312.00,143.60"/>
    </edge>
    <edge id=":B0_9" function="internal">
        <lane id=":B0_9_0" index="0" speed="13.89" length="24.00" shape="306.40,138.00 306.40,162.00"/>
        <lane id=":B0_9_1" index="1" speed="13.89" length="24.00" shape="303.20,138.00 303.20,162.00"/>
    </edge>
    <edge id=":B0_11" function="internal">
        <lane id=":B0_11_0" index="0" speed="9.84" length="6.30" shape="300.00,138.00 299.29,144.26"/>
    </edge>
    <edge id=":B0_18" function="internal">
        <lane id=":B0_18_0" index="0" speed="9.84" length="15.70" shape="299.29,144.26 299.25,144.65 297.00,149.40 293.25,152.25 288.00,153.20"/>
    </edge>
    <edge id=":B0_12" function="internal">
        <lane id=":B0_12_0" index="0" speed="6.51" length="9.03" shape="288.00,143.60 290.45,143.25 292.20,142.20 293.25,140.45 293.60,138.00"/>
    </edge>
    <edge id=":B0_13" function="internal">
        <lane id=":B0_13_0" index="0" speed="13.89" length="24.00" shape="288.00,143.60 312.00,143.60"/>
        <lane id=":B0_13_1" index="1" speed="13.89" length="24.00" shape="288.00,146.80 312.00,146.80"/>
    </edge>
    <edge id=":B0_15" function="internal">
        <lane id=":B0_15_0" index="0" speed="9.84" length="6.30" shape="288.00,150.00 294.26,150.71"/>
    </edge>
    <edge id=":B0_19" function="internal">
        <lane id=":B0_19_0" index="0" speed="9.84" length="15.70" shape="294.26,150.71 294.65,150.75 299.40,153.00 302.25,156.75 303.20,162.00"/>
    </edge>
    <edge id=":B0A0.80.00_0" function="internal">
        <lane id=":B0A0.80.00_0_0" index="0" speed="13.89" length="8.27" shape="224.00,156.40 216.00,156.40"/>
        <lane id=":B0A0.80.00_0_1" index="1" speed="13.89" length="8.27" shape="224.00,153.20 216.00,153.20"/>
        <lane id=":B0A0.80.00_0_2" index="2" speed="13.89" length="8.27" shape="224.00,153.20 221.54,152.70 220.00,151.60 218.46,150.50 216.00,150.00"/>
    </edge>
    <edge id=":B0B1.80.00_0" function="internal">
        <lane id=":B0B1.80.00_0_0" index="0" speed="13.89" length="8.27" shape="306.40,226.00 306.40,234.00"/>
        <lane id=":B0B1.80.00_0_1" index="1" speed="13.89" length="8.27" shape="303.20,226.00 303.20,234.00"/>
        <lane id=":B0B1.80.00_0_2" index="2" speed="13.89" length="8.27" shape="303.20,226.00 302.70,228.46 301.60,230.00 300.50,231.54 300.00,234.00"/>
    </edge>
    <edge id=":B0C0.80.00_0" function="internal">
        <lane id=":B0C0.80.00_0_0" index="0" speed="13.89" length="8.27" shape="376.00,143.60 384.00,143.60"/>
        <lane id=":B0C0.80.00_0_1" index="1" speed="13.89" length="8.27" shape="376.00,146.80 384.00,146.80"/>
        <lane id=":B0C0.80.00_0_2" index="2" speed="13.89" length="8.27" shape="376.00,146.80 378.46,147.30 380.00,148.40 381.54,149.50 384.00,150.00"/>
    </edge>
    <edge id=":B1_0" function="internal">
        <lane id=":B1_0_0" index="0" speed="6.51" length="9.03" shape="293.60,312.00 293.25,309.55 292.20,307.80 290.45,306.75 288.00,306.40"/>
    </edge>
    <edge id=":B1_1" function="internal">
        <lane id=":B1_1_0" index="0" speed="13.89" length="24.00" shape="293.60,312.00 293.60,288.00"/>
        <lane id=":B1_1_1" index="1" speed="13.89" length="24.00" shape="296.80,312.00 296.80,288.00"/>
    </edge>
    <edge id=":B1_3" function="internal">
        <lane id=":B1_3_0" index="0" speed="9.84" length="6.30" shape="300.00,312.00 300.71,305.74"/>
    </edge>
    <edge id=":B1_16" function="internal">
        <lane id=":B1_16_0" index="0" speed="9.84" length="15.70" shape="300.71,305.74 300.75,305.35 303.00,300.60 306.75,297.75 312.00,296.80"/>
    </edge>
    <edge id=":B1_4" function="internal">
        <lane id=":B1_4_0" index="0" speed="6.51" length="9.03" shape="312.00,306.40 309.55,306.75 307.80,307.80 306.75,309.55 306.40,312.00"/>
    </edge>
    <edge id=":B1_5" function="internal">
        <lane id=":B1_5_0" index="0" speed="13.89" length="24.00" shape="312.00,306.40 288.00,306.40"/>
        <lane id=":B1_5_1" index="1" speed="13.89" length="24.00" shape="312.00,303.20 288.00,303.20"/>
    </edge>
    <edge id=":B1_7" function="internal">
        <lane id=":B1_7_0" index="0" speed="9.84" length="6.30" shape="312.00,300.00 305.74,299.29"/>
    </edge>
    <edge id=":B1_17" function="internal">
        <lane id=":B1_17_0" index="0" speed="9.84" length="15.70" shape="305.74,299.29 305.35,299.25 300.60,297.00 297.75,293.25 296.80,288.00"/>
    </edge>
    <edge id=":B1_8" function="internal">
        <lane id=":B1_8_0" index="0" speed="6.51" length="9.03" shape="306.40,288.00 306.75,290.45 307.80,292.20 309.55,293.25 312.00,293.60"/>
    </edge>
    <edge id=":B1_9" function="internal">