<?xml version="1.0" encoding="UTF-8"?>

<!-- generated on 2023-04-26 16:57:01.951218 by randomTrips.py UNKNOWN
<configuration>
    <begin value="0"/>
    <end value="900"/>
    <insertion-rate value="8000.0"/>
    <net-file value="/home/franky3er/Documents/code/HieraGLight/scenarios/grid/1x1-500m/train/68-scenario/network.net.xml"/>
    <random value="True"/>
    <random-depart value="True"/>
    <route-file value="/home/franky3er/Documents/code/HieraGLight/scenarios/grid/1x1-500m/train/68-scenario/routes.rou.xml"/>
    <seed value="68"/>
    <output-trip-file value="/home/franky3er/Documents/code/HieraGLight/scenarios/grid/1x1-500m/train/68-scenario/trips.trips.xml"/>
    <vehicle-class value="passenger"/>
</configuration>
-->

<!-- generated on 2023-04-26 16:57:01 by Eclipse SUMO duarouter Version 1.16.0
<configuration xmlns:xsi="http://www.w3.org/2001/XMLSchema-instance" xsi:noNamespaceSchemaLocation="http://sumo.dlr.de/xsd/duarouterConfiguration.xsd">

    <input>
        <net-file value="/home/franky3er/Documents/code/HieraGLight/scenarios/grid/1x1-500m/train/68-scenario/network.net.xml"/>
        <route-files value="/home/franky3er/Documents/code/HieraGLight/scenarios/grid/1x1-500m/train/68-scenario/trips.trips.xml"/>
    </input>

    <output>
        <output-file value="/home/franky3er/Documents/code/HieraGLight/scenarios/grid/1x1-500m/train/68-scenario/routes.rou.xml"/>
        <alternatives-output value="NUL"/>
    </output>

    <time>
        <begin value="0"/>
        <end value="900"/>
    </time>

    <report>
        <no-warnings value="true"/>
        <ignore-errors value="true"/>
        <no-step-log value="true"/>
    </report>

</configuration>
-->

<routes xmlns:xsi="http://www.w3.org/2001/XMLSchema-instance" xsi:noNamespaceSchemaLocation="http://sumo.dlr.de/xsd/routes_file.xsd">
    <vType id="passenger" vClass="passenger"/>
    <vehicle id="1" type="passenger" depart="0.55">
        <route edges="right0A0 right0A0.250.00 A0left0"/>
    </vehicle>
    <vehicle id="11" type="passenger" depart="4.90">
        <route edges="left0A0 left0A0.250.00"/>
    </vehicle>
    <vehicle id="12" type="passenger" depart="5.25">
        <route edges="top0A0 top0A0.250.00 A0bottom0"/>
    </vehicle>
    <vehicle id="14" type="passenger" depart="6.10">
        <route edges="right0A0.250.00"/>
    </vehicle>
    <vehicle id="15" type="passenger" depart="7.65">
        <route edges="right0A0 right0A0.250.00 A0top0"/>
    </vehicle>
    <vehicle id="17" type="passenger" depart="8.15">
        <route edges="right0A0 right0A0.250.00 A0left0"/>
    </vehicle>
    <vehicle id="20" type="passenger" depart="9.50">
        <route edges="left0A0 left0A0.250.00"/>
    </vehicle>
    <vehicle id="21" type="passenger" depart="9.65">
        <route edges="bottom0A0 bottom0A0.250.00 A0right0"/>
    </vehicle>
    <vehicle id="23" type="passenger" depart="10.80">
        <route edges="top0A0.250.00"/>
    </vehicle>
    <vehicle id="25" type="passenger" depart="10.90">
        <route edges="right0A0 right0A0.250.00 A0left0"/>
    </vehicle>
    <vehicle id="27" type="passenger" depart="11.95">
        <route edges="bottom0A0.250.00 A0left0"/>
    </vehicle>
    <vehicle id="28" type="passenger" depart="12.60">
        <route edges="top0A0 top0A0.250.00 A0left0"/>
    </vehicle>
    <vehicle id="29" type="passenger" depart="12.75">
        <route edges="top0A0.250.00"/>
    </vehicle>
    <vehicle id="31" type="passenger" depart="13.05">
        <route edges="left0A0 left0A0.250.00 A0top0"/>
    </vehicle>
    <vehicle id="33" type="passenger" depart="13.60">
        <route edges="bottom0A0 bottom0A0.250.00 A0top0"/>
    </vehicle>
    <vehicle id="34" type="passenger" depart="13.85">
        <route edges="top0A0 top0A0.250.00 A0bottom0"/>
    </vehicle>
    <vehicle id="37" type="passenger" depart="14.85">
        <route edges="top0A0.250.00 A0bottom0"/>
    </vehicle>
    <vehicle id="38" type="passenger" depart="15.10">
        <route edges="bottom0A0 bottom0A0.250.00 A0right0"/>
    </vehicle>
    <vehicle id="39" type="passenger" depart="15.35">
        <route edges="left0A0.250.00 A0top0"/>
    </vehicle>
    <vehicle id="40" type="passenger" depart="16.25">
        <route edges="bottom0A0 bottom0A0.250.00"/>
    </vehicle>
    <vehicle id="41" type="passenger" depart="16.55">
        <route edges="left0A0.250.00 A0top0"/>
    </vehicle>
    <vehicle id="43" type="passenger" depart="19.95">
        <route edges="bottom0A0.250.00"/>
    </vehicle>
    <vehicle id="45" type="passenger" depart="21.25">
        <route edges="top0A0.250.00"/>
    </vehicle>
    <vehicle id="46" type="passenger" depart="21.55">
        <route edges="left0A0 left0A0.250.00 A0right0"/>
    </vehicle>
    <vehicle id="47" type="passenger" depart="21.70">
        <route edges="top0A0.250.00 A0right0"/>
    </vehicle>
    <vehicle id="49" type="passenger" depart="24.50">
        <route edges="right0A0 right0A0.250.00 A0left0"/>
    </vehicle>
    <vehicle id="50" type="passenger" depart="24.75">
        <route edges="right0A0.250.00 A0top0"/>
    </vehicle>
    <vehicle id="51" type="passenger" depart="25.80">
        <route edges="bottom0A0.250.00 A0top0"/>
    </vehicle>
    <vehicle id="52" type="passenger" depart="26.10">
        <route edges="right0A0.250.00 A0left0"/>
    </vehicle>
    <vehicle id="53" type="passenger" depart="26.15">
        <route edges="right0A0.250.00 A0top0"/>
    </vehicle>
    <vehicle id="54" type="passenger" depart="26.25">
        <route edges="bottom0A0.250.00 A0left0"/>
    </vehicle>
    <vehicle id="55" type="passenger" depart="26.80">
        <route edges="right0A0.250.00"/>
    </vehicle>
    <vehicle id="58" type="passenger" depart="27.85">
        <route edges="left0A0 left0A0.250.00"/>
    </vehicle>
    <vehicle id="59" type="passenger" depart="28.10">
        <route edges="right0A0 right0A0.250.00 A0left0"/>
    </vehicle>
    <vehicle id="61" type="passenger" depart="29.15">
        <route edges="left0A0 left0A0.250.00"/>
    </vehicle>
    <vehicle id="67" type="passenger" depart="32.25">
        <route edges="left0A0 left0A0.250.00 A0top0"/>
    </vehicle>
    <vehicle id="68" type="passenger" depart="32.50">
        <route edges="left0A0 left0A0.250.00"/>
    </vehicle>
    <vehicle id="70" type="passenger" depart="32.90">
        <route edges="left0A0 left0A0.250.00 A0right0"/>
    </vehicle>
    <vehicle id="71" type="passenger" depart="33.20">
        <route edges="top0A0.250.00"/>
    </vehicle>
    <vehicle id="74" type="passenger" depart="34.15">
        <route edges="top0A0 top0A0.250.00 A0bottom0"/>
    </vehicle>
    <vehicle id="75" type="passenger" depart="34.40">
        <route edges="bottom0A0 bottom0A0.250.00"/>
    </vehicle>
    <vehicle id="76" type="passenger" depart="35.20">
        <route edges="bottom0A0 bottom0A0.250.00 A0right0"/>
    </vehicle>
    <vehicle id="82" type="passenger" depart="39.00">
        <route edges="left0A0.250.00"/>
    </vehicle>
    <vehicle id="83" type="passenger" depart="39.00">
        <route edges="top0A0 top0A0.250.00"/>
    </vehicle>
    <vehicle id="84" type="passenger" depart="39.10">
        <route edges="top0A0.250.00"/>
    </vehicle>
    <vehicle id="85" type="passenger" depart="39.65">
        <route edges="bottom0A0.250.00 A0right0"/>
    </vehicle>
    <vehicle id="89" type="passenger" depart="41.15">
        <route edges="top0A0.250.00 A0bottom0"/>
    </vehicle>
    <vehicle id="91" type="passenger" depart="42.50">
        <route edges="right0A0 right0A0.250.00 A0left0"/>
    </vehicle>
    <vehicle id="94" type="passenger" depart="44.95">
        <route edges="left0A0.250.00"/>
    </vehicle>
    <vehicle id="95" type="passenger" depart="46.00">
        <route edges="left0A0.250.00 A0right0"/>
    </vehicle>
    <vehicle id="96" type="passenger" depart="46.60">
        <route edges="bottom0A0.250.00"/>
    </vehicle>
    <vehicle id="97" type="passenger" depart="47.70">
        <route edges="left0A0 left0A0.250.00 A0bottom0"/>
    </vehicle>
    <vehicle id="98" type="passenger" depart="49.00">
        <route edges="left0A0.250.00"/>
    </vehicle>
    <vehicle id="99" type="passenger" depart="49.15">
        <route edges="bottom0A0 bottom0A0.250.00 A0left0"/>
    </vehicle>
    <vehicle id="100" type="passenger" depart="49.40">
        <route edges="top0A0 top0A0.250.00 A0bottom0"/>
    </vehicle>
    <vehicle id="102" type="passenger" depart="49.90">
        <route edges="right0A0.250.00 A0bottom0"/>
    </vehicle>
    <vehicle id="103" type="passenger" depart="50.95">
        <route edges="left0A0.250.00 A0bottom0"/>
    </vehicle>
    <vehicle id="104" type="passenger" depart="51.20">
        <route edges="top0A0.250.00"/>
    </vehicle>
    <vehicle id="105" type="passenger" depart="51.90">
        <route edges="right0A0.250.00 A0bottom0"/>
    </vehicle>
    <vehicle id="106" type="passenger" depart="52.05">
        <route edges="right0A0 right0A0.250.00 A0left0"/>
    </vehicle>
    <vehicle id="107" type="passenger" depart="52.25">
        <route edges="left0A0 left0A0.250.00 A0top0"/>
    </vehicle>
    <vehicle id="110" type="passenger" depart="54.20">
        <route edges="top0A0 top0A0.250.00 A0left0"/>
    </vehicle>
    <vehicle id="113" type="passenger" depart="55.55">
        <route edges="right0A0 right0A0.250.00 A0top0"/>
    </vehicle>
    <vehicle id="114" type="passenger" depart="57.00">
        <route edges="right0A0 right0A0.250.00"/>
    </vehicle>
    <vehicle id="115" type="passenger" depart="58.70">
        <route edges="right0A0.250.00 A0bottom0"/>
    </vehicle>
    <vehicle id="118" type="passenger" depart="59.30">
        <route edges="bottom0A0 bottom0A0.250.00 A0top0"/>
    </vehicle>
    <vehicle id="119" type="passenger" depart="60.35">
        <route edges="bottom0A0.250.00 A0left0"/>
    </vehicle>
    <vehicle id="121" type="passenger" depart="61.85">
        <route edges="left0A0.250.00 A0right0"/>
    </vehicle>
    <vehicle id="122" type="passenger" depart="61.85">
        <route edges="left0A0.250.00 A0bottom0"/>
    </vehicle>
    <vehicle id="123" type="passenger" depart="62.20">
        <route edges="bottom0A0.250.00 A0left0"/>
    </vehicle>
    <vehicle id="125" type="passenger" depart="63.05">
        <route edges="left0A0.250.00 A0bottom0"/>
    </vehicle>
    <vehicle id="127" type="passenger" depart="63.55">
        <route edges="top0A0 top0A0.250.00 A0right0"/>
    </vehicle>
    <vehicle id="129" type="passenger" depart="64.30">
        <route edges="right0A0.250.00"/>
    </vehicle>
    <vehicle id="130" type="passenger" depart="65.10">
        <route edges="bottom0A0 bottom0A0.250.00 A0left0"/>
    </vehicle>
    <vehicle id="131" type="passenger" depart="65.30">
        <route edges="left0A0 left0A0.250.00 A0top0"/>
    </vehicle>
    <vehicle id="134" type="passenger" depart="68.15">
        <route edges="bottom0A0.250.00"/>
    </vehicle>
    <vehicle id="137" type="passenger" depart="69.30">
        <route edges="top0A0 top0A0.250.00 A0left0"/>
    </vehicle>
    <vehicle id="138" type="passenger" depart="69.55">
        <route edges="top0A0.250.00 A0left0"/>
    </vehicle>
    <vehicle id="140" type="passenger" depart="70.00">
        <route edges="left0A0 left0A0.250.00 A0bottom0"/>
    </vehicle>
    <vehicle id="141" type="passenger" depart="70.00">
        <route edges="top0A0 top0A0.250.00 A0left0"/>
    </vehicle>
    <vehicle id="142" type="passenger" depart="72.70">
        <route edges="right0A0 right0A0.250.00 A0bottom0"/>
    </vehicle>
    <vehicle id="149" type="passenger" depart="74.50">
        <route edges="right0A0.250.00"/>
    </vehicle>
    <vehicle id="155" type="passenger" depart="75.80">
        <route edges="top0A0.250.00 A0bottom0"/>
    </vehicle>
    <vehicle id="159" type="passenger" depart="77.15">
        <route edges="right0A0.250.00 A0bottom0"/>
    </vehicle>
    <vehicle id="160" type="passenger" depart="77.60">
        <route edges="left0A0 left0A0.250.00 A0top0"/>
    </vehicle>
    <vehicle id="161" type="passenger" depart="78.10">
        <route edges="right0A0.250.00 A0bottom0"/>
    </vehicle>
    <vehicle id="165" type="passenger" depart="80.05">
        <route edges="top0A0 top0A0.250.00 A0left0"/>
    </vehicle>
    <vehicle id="166" type="passenger" depart="80.05">
        <route edges="top0A0 top0A0.250.00 A0left0"/>
    </vehicle>
    <vehicle id="167" type="passenger" depart="80.15">
        <route edges="right0A0.250.00 A0top0"/>
    </vehicle>
    <vehicle id="168" type="passenger" depart="81.05">
        <route edges="left0A0 left0A0.250.00 A0top0"/>
    </vehicle>
    <vehicle id="169" type="passenger" depart="81.80">
        <route edges="right0A0.250.00 A0bottom0"/>
    </vehicle>
    <vehicle id="180" type="passenger" depart="86.95">
        <route edges="top0A0.250.00"/>
    </vehicle>
    <vehicle id="186" type="passenger" depart="90.30">
        <route edges="top0A0.250.00 A0bottom0"/>
    </vehicle>
    <vehicle id="190" type="passenger" depart="92.15">
        <route edges="top0A0 top0A0.250.00 A0right0"/>
    </vehicle>
    <vehicle id="191" type="passenger" depart="93.65">
        <route edges="right0A0 right0A0.250.00 A0top0"/>
    </vehicle>
    <vehicle id="194" type="passenger" depart="94.30">
        <route edges="left0A0 left0A0.250.00 A0right0"/>
    </vehicle>
    <vehicle id="195" type="passenger" depart="94.40">
        <route edges="left0A0.250.00"/>
    </vehicle>
    <vehicle id="197" type="passenger" depart="95.75">
        <route edges="left0A0.250.00 A0bottom0"/>
    </vehicle>
    <vehicle id="198" type="passenger" depart="96.05">
        <route edges="bottom0A0 bottom0A0.250.00"/>
    </vehicle>
    <vehicle id="202" type="passenger" depart="96.90">
        <route edges="bottom0A0.250.00 A0left0"/>
    </vehicle>
    <vehicle id="204" type="passenger" depart="97.30">
        <route edges="bottom0A0.250.00 A0top0"/>
    </vehicle>
    <vehicle id="205" type="passenger" depart="97.80">
        <route edges="top0A0.250.00 A0left0"/>
    </vehicle>
    <vehicle id="206" type="passenger" depart="97.85">
        <route edges="top0A0.250.00 A0bottom0"/>
    </vehicle>
    <vehicle id="209" type="passenger" depart="99.10">
        <route edges="right0A0.250.00 A0left0"/>
    </vehicle>
    <vehicle id="210" type="passenger" depart="99.35">
        <route edges="top0A0.250.00 A0right0"/>
    </vehicle>
    <vehicle id="214" type="passenger" depart="100.85">
        <route edges="left0A0 left0A0.250.00 A0right0"/>
    </vehicle>
    <vehicle id="219" type="passenger" depart="103.55">
        <route edges="left0A0.250.00 A0top0"/>
    </vehicle>
    <vehicle id="220" type="passenger" depart="103.70">
        <route edges="left0A0.250.00 A0bottom0"/>
    </vehicle>
    <vehicle id="227" type="passenger" depart="107.65">
        <route edges="left0A0.250.00 A0right0"/>
    </vehicle>
    <vehicle id="230" type="passenger" depart="108.60">
        <route edges="right0A0.250.00 A0left0"/>
    </vehicle>
    <vehicle id="232" type="passenger" depart="109.10">
        <route edges="bottom0A0.250.00 A0top0"/>
    </vehicle>
    <vehicle id="233" type="passenger" depart="110.00">
        <route edges="bottom0A0 bottom0A0.250.00 A0top0"/>
    </vehicle>
    <vehicle id="236" type="passenger" depart="110.70">
        <route edges="right0A0 right0A0.250.00 A0bottom0"/>
    </vehicle>
    <vehicle id="237" type="passenger" depart="111.95">
        <route edges="left0A0.250.00 A0top0"/>
    </vehicle>
    <vehicle id="238" type="passenger" depart="112.65">
        <route edges="left0A0 left0A0.250.00 A0right0"/>
    </vehicle>
    <vehicle id="240" type="passenger" depart="115.15">
        <route edges="bottom0A0 bottom0A0.250.00 A0left0"/>
    </vehicle>
    <vehicle id="241" type="passenger" depart="115.30">
        <route edges="right0A0.250.00 A0left0"/>
    </vehicle>
    <vehicle id="242" type="passenger" depart="115.30">
        <route edges="top0A0 top0A0.250.00 A0left0"/>
    </vehicle>
    <vehicle id="246" type="passenger" depart="117.00">
        <route edges="bottom0A0.250.00 A0left0"/>
    </vehicle>
    <vehicle id="248" type="passenger" depart="117.35">
        <route edges="top0A0 top0A0.250.00 A0left0"/>
    </vehicle>
    <vehicle id="250" type="passenger" depart="118.55">
        <route edges="right0A0 right0A0.250.00 A0bottom0"/>
    </vehicle>
    <vehicle id="251" type="passenger" depart="119.20">
        <route edges="left0A0 left0A0.250.00"/>
    </vehicle>
    <vehicle id="252" type="passenger" depart="119.85">
        <route edges="left0A0.250.00 A0bottom0"/>
    </vehicle>
    <vehicle id="253" type="passenger" depart="120.10">
        <route edges="right0A0.250.00 A0bottom0"/>
    </vehicle>
    <vehicle id="256" type="passenger" depart="120.50">
        <route edges="right0A0.250.00 A0bottom0"/>
    </vehicle>
    <vehicle id="257" type="passenger" depart="120.55">
        <route edges="top0A0 top0A0.250.00 A0bottom0"/>
    </vehicle>
    <vehicle id="258" type="passenger" depart="120.70">
        <route edges="top0A0 top0A0.250.00"/>
    </vehicle>
    <vehicle id="259" type="passenger" depart="121.90">
        <route edges="bottom0A0.250.00 A0top0"/>
    </vehicle>
    <vehicle id="262" type="passenger" depart="122.95">
        <route edges="bottom0A0 bottom0A0.250.00 A0right0"/>
    </vehicle>
    <vehicle id="263" type="passenger" depart="124.70">
        <route edges="top0A0.250.00 A0right0"/>
    </vehicle>
    <vehicle id="265" type="passenger" depart="124.80">
        <route edges="top0A0.250.00"/>
    </vehicle>
    <vehicle id="266" type="passenger" depart="124.85">
        <route edges="bottom0A0.250.00 A0right0"/>
    </vehicle>
    <vehicle id="268" type="passenger" depart="126.20">
        <route edges="top0A0.250.00 A0right0"/>
    </vehicle>
    <vehicle id="269" type="passenger" depart="126.45">
        <route edges="bottom0A0 bottom0A0.250.00 A0right0"/>
    </vehicle>
    <vehicle id="273" type="passenger" depart="128.35">
        <route edges="top0A0.250.00 A0right0"/>
    </vehicle>
    <vehicle id="274" type="passenger" depart="128.90">
        <route edges="bottom0A0.250.00"/>
    </vehicle>
    <vehicle id="277" type="passenger" depart="129.85">
        <route edges="left0A0.250.00 A0top0"/>
    </vehicle>
    <vehicle id="278" type="passenger" depart="130.85">
        <route edges="top0A0.250.00"/>
    </vehicle>
    <vehicle id="280" type="passenger" depart="131.30">
        <route edges="left0A0.250.00 A0top0"/>
    </vehicle>
    <vehicle id="284" type="passenger" depart="133.40">
        <route edges="bottom0A0 bottom0A0.250.00 A0top0"/>
    </vehicle>
    <vehicle id="286" type="passenger" depart="133.95">
        <route edges="right0A0.250.00 A0bottom0"/>
    </vehicle>
    <vehicle id="288" type="passenger" depart="134.35">
        <route edges="top0A0.250.00 A0right0"/>
    </vehicle>
    <vehicle id="291" type="passenger" depart="134.55">
        <route edges="bottom0A0.250.00 A0right0"/>
    </vehicle>
    <vehicle id="296" type="passenger" depart="136.15">
        <route edges="left0A0.250.00 A0right0"/>
    </vehicle>
    <vehicle id="301" type="passenger" depart="137.55">
        <route edges="right0A0.250.00"/>
    </vehicle>
    <vehicle id="304" type="passenger" depart="140.80">
        <route edges="top0A0.250.00"/>
    </vehicle>
    <vehicle id="305" type="passenger" depart="141.05">
        <route edges="left0A0.250.00"/>
    </vehicle>
    <vehicle id="308" type="passenger" depart="142.55">
        <route edges="left0A0.250.00 A0right0"/>
    </vehicle>
    <vehicle id="311" type="passenger" depart="144.40">
        <route edges="right0A0 right0A0.250.00"/>
    </vehicle>
    <vehicle id="312" type="passenger" depart="144.75">
        <route edges="top0A0 top0A0.250.00 A0left0"/>
    </vehicle>
    <vehicle id="313" type="passenger" depart="145.35">
        <route edges="top0A0 top0A0.250.00 A0left0"/>
    </vehicle>
    <vehicle id="314" type="passenger" depart="145.45">
        <route edges="right0A0 right0A0.250.00 A0bottom0"/>
    </vehicle>
    <vehicle id="316" type="passenger" depart="145.95">
        <route edges="top0A0 top0A0.250.00"/>
    </vehicle>
    <vehicle id="319" type="passenger" depart="146.55">
        <route edges="top0A0.250.00 A0left0"/>
    </vehicle>
    <vehicle id="320" type="passenger" depart="146.90">
        <route edges="top0A0 top0A0.250.00 A0right0"/>
    </vehicle>
    <vehicle id="322" type="passenger" depart="148.10">
        <route edges="bottom0A0 bottom0A0.250.00 A0right0"/>
    </vehicle>
    <vehicle id="326" type="passenger" depart="150.45">
        <route edges="top0A0 top0A0.250.00"/>
    </vehicle>
    <vehicle id="327" type="passenger" depart="152.50">
        <route edges="left0A0.250.00 A0bottom0"/>
    </vehicle>
    <vehicle id="329" type="passenger" depart="154.55">
        <route edges="left0A0.250.00 A0right0"/>
    </vehicle>
    <vehicle id="330" type="passenger" depart="155.55">
        <route edges="bottom0A0 bottom0A0.250.00 A0top0"/>
    </vehicle>
    <vehicle id="334" type="passenger" depart="156.05">
        <route edges="top0A0.250.00 A0left0"/>
    </vehicle>
    <vehicle id="336" type="passenger" depart="157.00">
        <route edges="right0A0.250.00 A0left0"/>
    </vehicle>
    <vehicle id="339" type="passenger" depart="159.65">
        <route edges="left0A0.250.00 A0right0"/>
    </vehicle>
    <vehicle id="342" type="passenger" depart="160.75">
        <route edges="left0A0.250.00 A0right0"/>
    </vehicle>
    <vehicle id="346" type="passenger" depart="162.40">
        <route edges="top0A0 top0A0.250.00"/>
    </vehicle>
    <vehicle id="347" type="passenger" depart="162.90">
        <route edges="top0A0 top0A0.250.00 A0right0"/>
    </vehicle>
    <vehicle id="348" type="passenger" depart="163.75">
        <route edges="left0A0.250.00 A0right0"/>
    </vehicle>
    <vehicle id="350" type="passenger" depart="164.10">
        <route edges="left0A0 left0A0.250.00"/>
    </vehicle>
    <vehicle id="354" type="passenger" depart="165.70">
        <route edges="top0A0 top0A0.250.00"/>
    </vehicle>
    <vehicle id="356" type="passenger" depart="166.45">
        <route edges="bottom0A0 bottom0A0.250.00 A0left0"/>
    </vehicle>
    <vehicle id="358" type="passenger" depart="167.45">
        <route edges="left0A0 left0A0.250.00 A0right0"/>
    </vehicle>
    <vehicle id="359" type="passenger" depart="167.50">
        <route edges="top0A0.250.00 A0left0"/>
    </vehicle>
    <vehicle id="364" type="passenger" depart="171.20">
        <route edges="top0A0.250.00 A0left0"/>
    </vehicle>
    <vehicle id="365" type="passenger" depart="171.70">
        <route edges="left0A0.250.00 A0top0"/>
    </vehicle>
    <vehicle id="366" type="passenger" depart="172.20">
        <route edges="bottom0A0 bottom0A0.250.00"/>
    </vehicle>
    <vehicle id="367" type="passenger" depart="172.80">
        <route edges="top0A0 top0A0.250.00"/>
    </vehicle>
    <vehicle id="368" type="passenger" depart="172.90">
        <route edges="left0A0.250.00"/>
    </vehicle>
    <vehicle id="369" type="passenger" depart="174.00">
        <route edges="bottom0A0.250.00 A0top0"/>
    </vehicle>
    <vehicle id="370" type="passenger" depart="174.55">
        <route edges="left0A0.250.00 A0right0"/>
    </vehicle>
    <vehicle id="374" type="passenger" depart="176.40">
        <route edges="bottom0A0.250.00"/>
    </vehicle>
    <vehicle id="375" type="passenger" depart="176.55">
        <route edges="right0A0 right0A0.250.00"/>
    </vehicle>
    <vehicle id="376" type="passenger" depart="176.95">
        <route edges="left0A0 left0A0.250.00 A0right0"/>
    </vehicle>
    <vehicle id="377" type="passenger" depart="177.55">
        <route edges="bottom0A0.250.00 A0top0"/>
    </vehicle>
    <vehicle id="383" type="passenger" depart="180.15">
        <route edges="left0A0 left0A0.250.00 A0right0"/>
    </vehicle>
    <vehicle id="385" type="passenger" depart="180.55">
        <route edges="left0A0 left0A0.250.00"/>
    </vehicle>
    <vehicle id="391" type="passenger" depart="185.55">
        <route edges="right0A0 right0A0.250.00 A0top0"/>
    </vehicle>
    <vehicle id="392" type="passenger" depart="185.65">
        <route edges="right0A0 right0A0.250.00 A0left0"/>
    </vehicle>
    <vehicle id="393" type="passenger" depart="186.65">
        <route edges="bottom0A0 bottom0A0.250.00 A0top0"/>
    </vehicle>
    <vehicle id="394" type="passenger" depart="187.60">
        <route edges="left0A0 left0A0.250.00"/>
    </vehicle>
    <vehicle id="396" type="passenger" depart="189.40">
        <route edges="bottom0A0 bottom0A0.250.00"/>
    </vehicle>
    <vehicle id="397" type="passenger" depart="189.65">
        <route edges="top0A0 top0A0.250.00"/>
    </vehicle>
    <vehicle id="401" type="passenger" depart="190.80">
        <route edges="top0A0.250.00 A0left0"/>
    </vehicle>
    <vehicle id="404" type="passenger" depart="191.70">
        <route edges="right0A0 right0A0.250.00 A0left0"/>
    </vehicle>
    <vehicle id="405" type="passenger" depart="192.15">
        <route edges="top0A0 top0A0.250.00 A0bottom0"/>
    </vehicle>
    <vehicle id="408" type="passenger" depart="193.10">
        <route edges="top0A0 top0A0.250.00 A0bottom0"/>
    </vehicle>
    <vehicle id="409" type="passenger" depart="193.25">
        <route edges="left0A0 left0A0.250.00 A0right0"/>
    </vehicle>
    <vehicle id="410" type="passenger" depart="193.35">
        <route edges="left0A0.250.00 A0right0"/>
    </vehicle>
    <vehicle id="411" type="passenger" depart="193.45">
        <route edges="left0A0 left0A0.250.00 A0right0"/>
    </vehicle>
    <vehicle id="412" type="passenger" depart="193.45">
        <route edges="left0A0.250.00 A0top0"/>
    </vehicle>
    <vehicle id="415" type="passenger" depart="194.50">
        <route edges="left0A0.250.00 A0bottom0"/>
    </vehicle>
    <vehicle id="418" type="passenger" depart="195.25">
        <route edges="left0A0.250.00"/>
    </vehicle>
    <vehicle id="420" type="passenger" depart="197.15">
        <route edges="bottom0A0 bottom0A0.250.00"/>
    </vehicle>
    <vehicle id="428" type="passenger" depart="199.35">
        <route edges="right0A0 right0A0.250.00 A0left0"/>
    </vehicle>
    <vehicle id="429" type="passenger" depart="200.75">
        <route edges="top0A0 top0A0.250.00 A0right0"/>
    </vehicle>
    <vehicle id="430" type="passenger" depart="201.05">
        <route edges="bottom0A0 bottom0A0.250.00"/>
    </vehicle>
    <vehicle id="431" type="passenger" depart="201.70">
        <route edges="right0A0.250.00"/>
    </vehicle>
    <vehicle id="432" type="passenger" depart="202.25">
        <route edges="top0A0.250.00 A0left0"/>
    </vehicle>
    <vehicle id="433" type="passenger" depart="203.00">
        <route edges="bottom0A0 bottom0A0.250.00 A0left0"/>
    </vehicle>
    <vehicle id="434" type="passenger" depart="203.25">
        <route edges="bottom0A0 bottom0A0.250.00 A0left0"/>
    </vehicle>
    <vehicle id="437" type="passenger" depart="204.45">
        <route edges="top0A0 top0A0.250.00 A0bottom0"/>
    </vehicle>
    <vehicle id="438" type="passenger" depart="204.75">
        <route edges="top0A0 top0A0.250.00 A0right0"/>
    </vehicle>
    <vehicle id="439" type="passenger" depart="205.05">
        <route edges="right0A0 right0A0.250.00 A0bottom0"/>
    </vehicle>
    <vehicle id="441" type="passenger" depart="206.10">
        <route edges="top0A0 top0A0.250.00 A0right0"/>
    </vehicle>
    <vehicle id="444" type="passenger" depart="207.05">
        <route edges="top0A0.250.00 A0right0"/>
    </vehicle>
    <vehicle id="451" type="passenger" depart="209.00">
        <route edges="bottom0A0 bottom0A0.250.00 A0left0"/>
    </vehicle>
    <vehicle id="452" type="passenger" depart="209.10">
        <route edges="bottom0A0 bottom0A0.250.00 A0top0"/>
    </vehicle>
    <vehicle id="461" type="passenger" depart="211.95">
        <route edges="right0A0.250.00 A0top0"/>
    </vehicle>
    <vehicle id="462" type="passenger" depart="212.35">
        <route edges="right0A0.250.00"/>
    </vehicle>
    <vehicle id="465" type="passenger" depart="214.00">
        <route edges="right0A0 right0A0.250.00 A0left0"/>
    </vehicle>
    <vehicle id="468" type="passenger" depart="214.35">
        <route edges="bottom0A0 bottom0A0.250.00 A0top0"/>
    </vehicle>
    <vehicle id="470" type="passenger" depart="214.75">
        <route edges="bottom0A0.250.00 A0right0"/>
    </vehicle>
    <vehicle id="471" type="passenger" depart="215.35">
        <route edges="bottom0A0.250.00 A0left0"/>
    </vehicle>
    <vehicle id="472" type="passenger" depart="215.80">
        <route edges="left0A0.250.00"/>
    </vehicle>
    <vehicle id="473" type="passenger" depart="216.70">
        <route edges="top0A0 top0A0.250.00 A0left0"/>
    </vehicle>
    <vehicle id="474" type="passenger" depart="216.90">
        <route edges="right0A0.250.00 A0top0"/>
    </vehicle>
    <vehicle id="475" type="passenger" depart="217.00">
        <route edges="right0A0 right0A0.250.00 A0left0"/>
    </vehicle>
    <vehicle id="476" type="passenger" depart="217.45">
        <route edges="left0A0 left0A0.250.00 A0top0"/>
    </vehicle>
    <vehicle id="479" type="passenger" depart="218.70">
        <route edges="right0A0.250.00 A0left0"/>
    </vehicle>
    <vehicle id="484" type="passenger" depart="220.65">
        <route edges="top0A0.250.00"/>
    </vehicle>
    <vehicle id="485" type="passenger" depart="222.75">
        <route edges="bottom0A0 bottom0A0.250.00 A0right0"/>
    </vehicle>
    <vehicle id="486" type="passenger" depart="223.00">
        <route edges="right0A0.250.00 A0top0"/>
    </vehicle>
    <vehicle id="487" type="passenger" depart="223.30">
        <route edges="bottom0A0.250.00 A0right0"/>
    </vehicle>