<?xml version="1.0" encoding="UTF-8"?>

<!-- generated on 2023-04-26 16:57:01.867961 by randomTrips.py UNKNOWN
<configuration>
    <begin value="0"/>
    <end value="900"/>
    <insertion-rate value="8000.0"/>
    <net-file value="/home/franky3er/Documents/code/HieraGLight/scenarios/grid/1x1-500m/train/68-scenario/network.net.xml"/>
    <random value="True"/>
    <random-depart value="True"/>
    <route-file value="/home/franky3er/Documents/code/HieraGLight/scenarios/grid/1x1-500m/train/68-scenario/routes.rou.xml"/>
    <seed value="68"/>
    <output-trip-file value="/home/franky3er/Documents/code/HieraGLight/scenarios/grid/1x1-500m/train/68-scenario/trips.trips.xml"/>
    <vehicle-class value="passenger"/>
</configuration>
-->

<routes xmlns:xsi="http://www.w3.org/2001/XMLSchema-instance" xsi:noNamespaceSchemaLocation="http://sumo.dlr.de/xsd/routes_file.xsd">
    <vType id="passenger" vClass="passenger"/>
    <trip id="0" depart="0.45" from="top0A0" to="right0A0.250.00" type="passenger"/>
    <trip id="1" depart="0.55" from="right0A0" to="A0left0" type="passenger"/>
    <trip id="2" depart="0.85" from="top0A0.250.00" to="right0A0.250.00" type="passenger"/>
    <trip id="3" depart="1.25" from="left0A0.250.00" to="bottom0A0.250.00" type="passenger"/>
    <trip id="4" depart="2.85" from="top0A0.250.00" to="left0A0.250.00" type="passenger"/>
    <trip id="5" depart="3.15" from="left0A0.250.00" to="A0left0" type="passenger"/>
    <trip id="6" depart="3.70" from="top0A0.250.00" to="right0A0.250.00" type="passenger"/>
    <trip id="7" depart="4.00" from="bottom0A0.250.00" to="A0bottom0" type="passenger"/>
    <trip id="8" depart="4.05" from="bottom0A0.250.00" to="A0bottom0" type="passenger"/>
    <trip id="9" depart="4.25" from="right0A0.250.00" to="A0right0" type="passenger"/>
    <trip id="10" depart="4.35" from="left0A0" to="top0A0.250.00" type="passenger"/>
    <trip id="11" depart="4.90" from="left0A0" to="left0A0.250.00" type="passenger"/>
    <trip id="12" depart="5.25" from="top0A0" to="A0bottom0" type="passenger"/>
    <trip id="13" depart="5.80" from="top0A0.250.00" to="right0A0.250.00" type="passenger"/>
    <trip id="14" depart="6.10" from="right0A0.250.00" to="right0A0.250.00" type="passenger"/>
    <trip id="15" depart="7.65" from="right0A0" to="A0top0" type="passenger"/>
    <trip id="16" depart="8.00" from="bottom0A0.250.00" to="right0A0.250.00" type="passenger"/>
    <trip id="17" depart="8.15" from="right0A0" to="A0left0" type="passenger"/>
    <trip id="18" depart="9.15" from="top0A0" to="right0A0.250.00" type="passenger"/>
    <trip id="19" depart="9.30" from="left0A0" to="right0A0.250.00" type="passenger"/>
    <trip id="20" depart="9.50" from="left0A0" to="left0A0.250.00" type="passenger"/>
    <trip id="21" depart="9.65" from="bottom0A0" to="A0right0" type="passenger"/>
    <trip id="22" depart="9.85" from="right0A0" to="bottom0A0.250.00" type="passenger"/>
    <trip id="23" depart="10.80" from="top0A0.250.00" to="top0A0.250.00" type="passenger"/>
    <trip id="24" depart="10.85" from="right0A0.250.00" to="left0A0.250.00" type="passenger"/>
    <trip id="25" depart="10.90" from="right0A0" to="A0left0" type="passenger"/>
    <trip id="26" depart="11.50" from="right0A0" to="A0right0" type="passenger"/>
    <trip id="27" depart="11.95" from="bottom0A0.250.00" to="A0left0" type="passenger"/>
    <trip id="28" depart="12.60" from="top0A0" to="A0left0" type="passenger"/>
    <trip id="29" depart="12.75" from="top0A0.250.00" to="top0A0.250.00" type="passenger"/>
    <trip id="30" depart="12.95" from="top0A0" to="left0A0.250.00" type="passenger"/>
    <trip id="31" depart="13.05" from="left0A0" to="A0top0" type="passenger"/>
    <trip id="32" depart="13.25" from="right0A0.250.00" to="A0right0" type="passenger"/>
    <trip id="33" depart="13.60" from="bottom0A0" to="A0top0" type="passenger"/>
    <trip id="34" depart="13.85" from="top0A0" to="A0bottom0" type="passenger"/>
    <trip id="35" depart="13.90" from="top0A0.250.00" to="bottom0A0.250.00" type="passenger"/>
    <trip id="36" depart="14.00" from="left0A0.250.00" to="A0left0" type="passenger"/>
    <trip id="37" depart="14.85" from="top0A0.250.00" to="A0bottom0" type="passenger"/>
    <trip id="38" depart="15.10" from="bottom0A0" to="A0right0" type="passenger"/>
    <trip id="39" depart="15.35" from="left0A0.250.00" to="A0top0" type="passenger"/>
    <trip id="40" depart="16.25" from="bottom0A0" to="bottom0A0.250.00" type="passenger"/>
    <trip id="41" depart="16.55" from="left0A0.250.00" to="A0top0" type="passenger"/>
    <trip id="42" depart="17.95" from="right0A0.250.00" to="bottom0A0.250.00" type="passenger"/>
    <trip id="43" depart="19.95" from="bottom0A0.250.00" to="bottom0A0.250.00" type="passenger"/>
    <trip id="44" depart="20.90" from="bottom0A0.250.00" to="right0A0.250.00" type="passenger"/>
    <trip id="45" depart="21.25" from="top0A0.250.00" to="top0A0.250.00" type="passenger"/>
    <trip id="46" depart="21.55" from="left0A0" to="A0right0" type="passenger"/>
    <trip id="47" depart="21.70" from="top0A0.250.00" to="A0right0" type="passenger"/>
    <trip id="48" depart="23.65" from="left0A0" to="bottom0A0.250.00" type="passenger"/>
    <trip id="49" depart="24.50" from="right0A0" to="A0left0" type="passenger"/>
    <trip id="50" depart="24.75" from="right0A0.250.00" to="A0top0" type="passenger"/>
    <trip id="51" depart="25.80" from="bottom0A0.250.00" to="A0top0" type="passenger"/>
    <trip id="52" depart="26.10" from="right0A0.250.00" to="A0left0" type="passenger"/>
    <trip id="53" depart="26.15" from="right0A0.250.00" to="A0top0" type="passenger"/>
    <trip id="54" depart="26.25" from="bottom0A0.250.00" to="A0left0" type="passenger"/>
    <trip id="55" depart="26.80" from="right0A0.250.00" to="right0A0.250.00" type="passenger"/>
    <trip id="56" depart="27.05" from="right0A0" to="bottom0A0.250.00" type="passenger"/>
    <trip id="57" depart="27.05" from="bottom0A0.250.00" to="A0bottom0" type="passenger"/>
    <trip id="58" depart="27.85" from="left0A0" to="left0A0.250.00" type="passenger"/>
    <trip id="59" depart="28.10" from="right0A0" to="A0left0" type="passenger"/>
    <trip id="60" depart="28.50" from="top0A0.250.00" to="right0A0.250.00" type="passenger"/>
    <trip id="61" depart="29.15" from="left0A0" to="left0A0.250.00" type="passenger"/>
    <trip id="62" depart="29.30" from="bottom0A0" to="A0bottom0" type="passenger"/>
    <trip id="63" depart="30.30" from="bottom0A0" to="left0A0.250.00" type="passenger"/>
    <trip id="64" depart="31.85" from="bottom0A0" to="top0A0.250.00" type="passenger"/>
    <trip id="65" depart="32.10" from="top0A0" to="A0top0" type="passenger"/>
    <trip id="66" depart="32.10" from="left0A0" to="right0A0.250.00" type="passenger"/>
    <trip id="67" depart="32.25" from="left0A0" to="A0top0" type="passenger"/>
    <trip id="68" depart="32.50" from="left0A0" to="left0A0.250.00" type="passenger"/>
    <trip id="69" depart="32.85" from="top0A0" to="left0A0.250.00" type="passenger"/>
    <trip id="70" depart="32.90" from="left0A0" to="A0right0" type="passenger"/>
    <trip id="71" depart="33.20" from="top0A0.250.00" to="top0A0.250.00" type="passenger"/>
    <trip id="72" depart="33.25" from="bottom0A0" to="top0A0.250.00" type="passenger"/>
    <trip id="73" depart="33.80" from="left0A0" to="top0A0.250.00" type="passenger"/>
    <trip id="74" depart="34.15" from="top0A0" to="A0bottom0" type="passenger"/>
    <trip id="75" depart="34.40" from="bottom0A0" to="bottom0A0.250.00" type="passenger"/>
    <trip id="76" depart="35.20" from="bottom0A0" to="A0right0" type="passenger"/>
    <trip id="77" depart="35.25" from="bottom0A0.250.00" to="right0A0.250.00" type="passenger"/>
    <trip id="78" depart="36.05" from="left0A0" to="bottom0A0.250.00" type="passenger"/>
    <trip id="79" depart="36.55" from="left0A0.250.00" to="bottom0A0.250.00" type="passenger"/>
    <trip id="80" depart="37.25" from="left0A0.250.00" to="A0left0" type="passenger"/>
    <trip id="81" depart="38.75" from="left0A0" to="top0A0.250.00" type="passenger"/>
    <trip id="82" depart="39.00" from="left0A0.250.00" to="left0A0.250.00" type="passenger"/>
    <trip id="83" depart="39.00" from="top0A0" to="top0A0.250.00" type="passenger"/>
    <trip id="84" depart="39.10" from="top0A0.250.00" to="top0A0.250.00" type="passenger"/>
    <trip id="85" depart="39.65" from="bottom0A0.250.00" to="A0right0" type="passenger"/>
    <trip id="86" depart="39.75" from="right0A0" to="top0A0.250.00" type="passenger"/>
    <trip id="87" depart="40.75" from="left0A0" to="right0A0.250.00" type="passenger"/>
    <trip id="88" depart="40.95" from="right0A0.250.00" to="bottom0A0.250.00" type="passenger"/>
    <trip id="89" depart="41.15" from="top0A0.250.00" to="A0bottom0" type="passenger"/>
    <trip id="90" depart="41.40" from="right0A0" to="A0right0" type="passenger"/>
    <trip id="91" depart="42.50" from="right0A0" to="A0left0" type="passenger"/>
    <trip id="92" depart="44.80" from="top0A0" to="left0A0.250.00" type="passenger"/>
    <trip id="93" depart="44.80" from="right0A0.250.00" to="left0A0.250.00" type="passenger"/>
    <trip id="94" depart="44.95" from="left0A0.250.00" to="left0A0.250.00" type="passenger"/>
    <trip id="95" depart="46.00" from="left0A0.250.00" to="A0right0" type="passenger"/>
    <trip id="96" depart="46.60" from="bottom0A0.250.00" to="bottom0A0.250.00" type="passenger"/>
    <trip id="97" depart="47.70" from="left0A0" to="A0bottom0" type="passenger"/>
    <trip id="98" depart="49.00" from="left0A0.250.00" to="left0A0.250.00" type="passenger"/>
    <trip id="99" depart="49.15" from="bottom0A0" to="A0left0" type="passenger"/>
    <trip id="100" depart="49.40" from="top0A0" to="A0bottom0" type="passenger"/>
    <trip id="101" depart="49.60" from="top0A0" to="left0A0.250.00" type="passenger"/>
    <trip id="102" depart="49.90" from="right0A0.250.00" to="A0bottom0" type="passenger"/>
    <trip id="103" depart="50.95" from="left0A0.250.00" to="A0bottom0" type="passenger"/>
    <trip id="104" depart="51.20" from="top0A0.250.00" to="top0A0.250.00" type="passenger"/>
    <trip id="105" depart="51.90" from="right0A0.250.00" to="A0bottom0" type="passenger"/>
    <trip id="106" depart="52.05" from="right0A0" to="A0left0" type="passenger"/>
    <trip id="107" depart="52.25" from="left0A0" to="A0top0" type="passenger"/>
    <trip id="108" depart="53.00" from="left0A0" to="top0A0.250.00" type="passenger"/>
    <trip id="109" depart="53.85" from="bottom0A0.250.00" to="A0bottom0" type="passenger"/>
    <trip id="110" depart="54.20" from="top0A0" to="A0left0" type="passenger"/>
    <trip id="111" depart="54.95" from="right0A0" to="left0A0.250.00" type="passenger"/>
    <trip id="112" depart="55.40" from="bottom0A0" to="left0A0.250.00" type="passenger"/>
    <trip id="113" depart="55.55" from="right0A0" to="A0top0" type="passenger"/>
    <trip id="114" depart="57.00" from="right0A0" to="right0A0.250.00" type="passenger"/>
    <trip id="115" depart="58.70" from="right0A0.250.00" to="A0bottom0" type="passenger"/>
    <trip id="116" depart="58.85" from="top0A0" to="A0top0" type="passenger"/>
    <trip id="117" depart="59.00" from="left0A0" to="bottom0A0.250.00" type="passenger"/>
    <trip id="118" depart="59.30" from="bottom0A0" to="A0top0" type="passenger"/>
    <trip id="119" depart="60.35" from="bottom0A0.250.00" to="A0left0" type="passenger"/>
    <trip id="120" depart="61.20" from="right0A0" to="A0right0" type="passenger"/>
    <trip id="121" depart="61.85" from="left0A0.250.00" to="A0right0" type="passenger"/>
    <trip id="122" depart="61.85" from="left0A0.250.00" to="A0bottom0" type="passenger"/>
    <trip id="123" depart="62.20" from="bottom0A0.250.00" to="A0left0" type="passenger"/>
    <trip id="124" depart="62.45" from="right0A0" to="A0right0" type="passenger"/>
    <trip id="125" depart="63.05" from="left0A0.250.00" to="A0bottom0" type="passenger"/>
    <trip id="126" depart="63.05" from="top0A0.250.00" to="right0A0.250.00" type="passenger"/>
    <trip id="127" depart="63.55" from="top0A0" to="A0right0" type="passenger"/>
    <trip id="128" depart="64.00" from="right0A0" to="A0right0" type="passenger"/>
    <trip id="129" depart="64.30" from="right0A0.250.00" to="right0A0.250.00" type="passenger"/>
    <trip id="130" depart="65.10" from="bottom0A0" to="A0left0" type="passenger"/>
    <trip id="131" depart="65.30" from="left0A0" to="A0top0" type="passenger"/>
    <trip id="132" depart="66.80" from="top0A0" to="left0A0.250.00" type="passenger"/>
    <trip id="133" depart="67.70" from="top0A0" to="left0A0.250.00" type="passenger"/>
    <trip id="134" depart="68.15" from="bottom0A0.250.00" to="bottom0A0.250.00" type="passenger"/>
    <trip id="135" depart="69.05" from="top0A0.250.00" to="A0top0" type="passenger"/>
    <trip id="136" depart="69.20" from="top0A0.250.00" to="bottom0A0.250.00" type="passenger"/>
    <trip id="137" depart="69.30" from="top0A0" to="A0left0" type="passenger"/>
    <trip id="138" depart="69.55" from="top0A0.250.00" to="A0left0" type="passenger"/>
    <trip id="139" depart="70.00" from="bottom0A0.250.00" to="top0A0.250.00" type="passenger"/>
    <trip id="140" depart="70.00" from="left0A0" to="A0bottom0" type="passenger"/>
    <trip id="141" depart="70.00" from="top0A0" to="A0left0" type="passenger"/>
    <trip id="142" depart="72.70" from="right0A0" to="A0bottom0" type="passenger"/>
    <trip id="143" depart="72.70" from="left0A0.250.00" to="right0A0.250.00" type="passenger"/>
    <trip id="144" depart="72.75" from="left0A0.250.00" to="A0left0" type="passenger"/>
    <trip id="145" depart="72.85" from="bottom0A0" to="A0bottom0" type="passenger"/>
    <trip id="146" depart="73.40" from="top0A0.250.00" to="bottom0A0.250.00" type="passenger"/>
    <trip id="147" depart="73.95" from="bottom0A0.250.00" to="right0A0.250.00" type="passenger"/>
    <trip id="148" depart="74.15" from="bottom0A0.250.00" to="top0A0.250.00" type="passenger"/>
    <trip id="149" depart="74.50" from="right0A0.250.00" to="right0A0.250.00" type="passenger"/>
    <trip id="150" depart="74.65" from="right0A0" to="bottom0A0.250.00" type="passenger"/>
    <trip id="151" depart="74.90" from="top0A0.250.00" to="A0top0" type="passenger"/>
    <trip id="152" depart="75.00" from="bottom0A0" to="left0A0.250.00" type="passenger"/>
    <trip id="153" depart="75.00" from="right0A0" to="bottom0A0.250.00" type="passenger"/>
    <trip id="154" depart="75.05" from="bottom0A0.250.00" to="right0A0.250.00" type="passenger"/>
    <trip id="155" depart="75.80" from="top0A0.250.00" to="A0bottom0" type="passenger"/>
    <trip id="156" depart="76.50" from="top0A0.250.00" to="right0A0.250.00" type="passenger"/>
    <trip id="157" depart="76.65" from="right0A0" to="A0right0" type="passenger"/>
    <trip id="158" depart="77.00" from="bottom0A0" to="top0A0.250.00" type="passenger"/>
    <trip id="159" depart="77.15" from="right0A0.250.00" to="A0bottom0" type="passenger"/>
    <trip id="160" depart="77.60" from="left0A0" to="A0top0" type="passenger"/>
    <trip id="161" depart="78.10" from="right0A0.250.00" to="A0bottom0" type="passenger"/>
    <trip id="162" depart="79.00" from="right0A0" to="A0right0" type="passenger"/>
    <trip id="163" depart="79.10" from="right0A0" to="bottom0A0.250.00" type="passenger"/>
    <trip id="164" depart="80.00" from="bottom0A0" to="left0A0.250.00" type="passenger"/>
    <trip id="165" depart="80.05" from="top0A0" to="A0left0" type="passenger"/>
    <trip id="166" depart="80.05" from="top0A0" to="A0left0" type="passenger"/>
    <trip id="167" depart="80.15" from="right0A0.250.00" to="A0top0" type="passenger"/>
    <trip id="168" depart="81.05" from="left0A0" to="A0top0" type="passenger"/>
    <trip id="169" depart="81.80" from="right0A0.250.00" to="A0bottom0" type="passenger"/>
    <trip id="170" depart="81.85" from="top0A0" to="A0top0" type="passenger"/>
    <trip id="171" depart="82.00" from="right0A0" to="bottom0A0.250.00" type="passenger"/>
    <trip id="172" depart="82.85" from="left0A0.250.00" to="bottom0A0.250.00" type="passenger"/>
    <trip id="173" depart="83.10" from="left0A0.250.00" to="top0A0.250.00" type="passenger"/>
    <trip id="174" depart="83.55" from="right0A0.250.00" to="bottom0A0.250.00" type="passenger"/>
    <trip id="175" depart="83.80" from="top0A0" to="A0top0" type="passenger"/>
    <trip id="176" depart="84.40" from="top0A0" to="bottom0A0.250.00" type="passenger"/>
    <trip id="177" depart="84.90" from="bottom0A0" to="left0A0.250.00" type="passenger"/>
    <trip id="178" depart="85.05" from="top0A0" to="right0A0.250.00" type="passenger"/>
    <trip id="179" depart="85.35" from="bottom0A0.250.00" to="A0bottom0" type="passenger"/>
    <trip id="180" depart="86.95" from="top0A0.250.00" to="top0A0.250.00" type="passenger"/>
    <trip id="181" depart="87.20" from="left0A0.250.00" to="top0A0.250.00" type="passenger"/>
    <trip id="182" depart="87.20" from="left0A0.250.00" to="bottom0A0.250.00" type="passenger"/>
    <trip id="183" depart="87.50" from="left0A0" to="A0left0" type="passenger"/>
    <trip id="184" depart="88.95" from="bottom0A0" to="top0A0.250.00" type="passenger"/>
    <trip id="185" depart="89.55" from="bottom0A0.250.00" to="left0A0.250.00" type="passenger"/>
    <trip id="186" depart="90.30" from="top0A0.250.00" to="A0bottom0" type="passenger"/>
    <trip id="187" depart="90.65" from="left0A0.250.00" to="bottom0A0.250.00" type="passenger"/>
    <trip id="188" depart="91.55" from="right0A0.250.00" to="left0A0.250.00" type="passenger"/>
    <trip id="189" depart="91.95" from="right0A0" to="A0right0" type="passenger"/>
    <trip id="190" depart="92.15" from="top0A0" to="A0right0" type="passenger"/>
    <trip id="191" depart="93.65" from="right0A0" to="A0top0" type="passenger"/>
    <trip id="192" depart="94.15" from="bottom0A0.250.00" to="A0bottom0" type="passenger"/>
    <trip id="193" depart="94.25" from="top0A0" to="bottom0A0.250.00" type="passenger"/>
    <trip id="194" depart="94.30" from="left0A0" to="A0right0" type="passenger"/>
    <trip id="195" depart="94.40" from="left0A0.250.00" to="left0A0.250.00" type="passenger"/>
    <trip id="196" depart="95.20" from="left0A0.250.00" to="top0A0.250.00" type="passenger"/>
    <trip id="197" depart="95.75" from="left0A0.250.00" to="A0bottom0" type="passenger"/>
    <trip id="198" depart="96.05" from="bottom0A0" to="bottom0A0.250.00" type="passenger"/>
    <trip id="199" depart="96.15" from="right0A0" to="left0A0.250.00" type="passenger"/>
    <trip id="200" depart="96.20" from="left0A0.250.00" to="A0left0" type="passenger"/>
    <trip id="201" depart="96.45" from="right0A0.250.00" to="left0A0.250.00" type="passenger"/>
    <trip id="202" depart="96.90" from="bottom0A0.250.00" to="A0left0" type="passenger"/>
    <trip id="203" depart="97.00" from="left0A0" to="A0left0" type="passenger"/>
    <trip id="204" depart="97.30" from="bottom0A0.250.00" to="A0top0" type="passenger"/>
    <trip id="205" depart="97.80" from="top0A0.250.00" to="A0left0" type="passenger"/>
    <trip id="206" depart="97.85" from="top0A0.250.00" to="A0bottom0" type="passenger"/>
    <trip id="207" depart="97.95" from="right0A0.250.00" to="top0A0.250.00" type="passenger"/>
    <trip id="208" depart="98.20" from="bottom0A0.250.00" to="top0A0.250.00" type="passenger"/>
    <trip id="209" depart="99.10" from="right0A0.250.00" to="A0left0" type="passenger"/>
    <trip id="210" depart="99.35" from="top0A0.250.00" to="A0right0" type="passenger"/>
    <trip id="211" depart="100.15" from="top0A0.250.00" to="left0A0.250.00" type="passenger"/>
    <trip id="212" depart="100.50" from="left0A0" to="bottom0A0.250.00" type="passenger"/>
    <trip id="213" depart="100.65" from="left0A0" to="A0left0" type="passenger"/>
    <trip id="214" depart="100.85" from="left0A0" to="A0right0" type="passenger"/>
    <trip id="215" depart="101.20" from="right0A0.250.00" to="bottom0A0.250.00" type="passenger"/>
    <trip id="216" depart="101.25" from="left0A0.250.00" to="right0A0.250.00" type="passenger"/>
    <trip id="217" depart="102.45" from="top0A0.250.00" to="left0A0.250.00" type="passenger"/>
    <trip id="218" depart="103.30" from="top0A0.250.00" to="right0A0.250.00" type="passenger"/>
    <trip id="219" depart="103.55" from="left0A0.250.00" to="A0top0" type="passenger"/>
    <trip id="220" depart="103.70" from="left0A0.250.00" to="A0bottom0" type="passenger"/>
    <trip id="221" depart="103.75" from="bottom0A0.250.00" to="right0A0.250.00" type="passenger"/>
    <trip id="222" depart="103.75" from="right0A0.250.00" to="A0right0" type="passenger"/>
    <trip id="223" depart="104.00" from="right0A0" to="top0A0.250.00" type="passenger"/>
    <trip id="224" depart="105.80" from="bottom0A0.250.00" to="top0A0.250.00" type="passenger"/>
    <trip id="225" depart="107.30" from="bottom0A0.250.00" to="top0A0.250.00" type="passenger"/>
    <trip id="226" depart="107.45" from="bottom0A0.250.00" to="left0A0.250.00" type="passenger"/>
    <trip id="227" depart="107.65" from="left0A0.250.00" to="A0right0" type="passenger"/>
    <trip id="228" depart="107.80" from="bottom0A0" to="A0bottom0" type="passenger"/>
    <trip id="229" depart="107.85" from="top0A0" to="bottom0A0.250.00" type="passenger"/>
    <trip id="230" depart="108.60" from="right0A0.250.00" to="A0left0" type="passenger"/>
    <trip id="231" depart="109.05" from="bottom0A0.250.00" to="top0A0.250.00" type="passenger"/>
    <trip id="232" depart="109.10" from="bottom0A0.250.00" to="A0top0" type="passenger"/>
    <trip id="233" depart="110.00" from="bottom0A0" to="A0top0" type="passenger"/>
    <trip id="234" depart="110.05" from="left0A0.250.00" to="top0A0.250.00" type="passenger"/>
    <trip id="235" depart="110.45" from="top0A0.250.00" to="left0A0.250.00" type="passenger"/>
    <trip id="236" depart="110.70" from="right0A0" to="A0bottom0" type="passenger"/>
    <trip id="237" depart="111.95" from="left0A0.250.00" to="A0top0" type="passenger"/>
    <trip id="238" depart="112.65" from="left0A0" to="A0right0" type="passenger"/>
    <trip id="239" depart="113.05" from="left0A0.250.00" to="bottom0A0.250.00" type="passenger"/>
    <trip id="240" depart="115.15" from="bottom0A0" to="A0left0" type="passenger"/>
    <trip id="241" depart="115.30" from="right0A0.250.00" to="A0left0" type="passenger"/>
    <trip id="242" depart="115.30" from="top0A0" to="A0left0" type="passenger"/>
    <trip id="243" depart="115.85" from="top0A0" to="right0A0.250.00" type="passenger"/>
    <trip id="244" depart="115.95" from="right0A0.250.00" to="A0right0" type="passenger"/>
    <trip id="245" depart="116.00" from="bottom0A0" to="A0bottom0" type="passenger"/>
    <trip id="246" depart="117.00" from="bottom0A0.250.00" to="A0left0" type="passenger"/>
    <trip id="247" depart="117.30" from="right0A0.250.00" to="left0A0.250.00" type="passenger"/>
    <trip id="248" depart="117.35" from="top0A0" to="A0left0" type="passenger"/>
    <trip id="249" depart="118.00" from="top0A0.250.00" to="left0A0.250.00" type="passenger"/>
    <trip id="250" depart="118.55" from="right0A0" to="A0bottom0" type="passenger"/>
    <trip id="251" depart="119.20" from="left0A0" to="left0A0.250.00" type="passenger"/>
    <trip id="252" depart="119.85" from="left0A0.250.00" to="A0bottom0" type="passenger"/>
    <trip id="253" depart="120.10" from="right0A0.250.00" to="A0bottom0" type="passenger"/>
    <trip id="254" depart="120.35" from="bottom0A0.250.00" to="top0A0.250.00" type="passenger"/>
    <trip id="255" depart="120.40" from="top0A0" to="right0A0.250.00" type="passenger"/>
    <trip id="256" depart="120.50" from="right0A0.250.00" to="A0bottom0" type="passenger"/>
    <trip id="257" depart="120.55" from="top0A0" to="A0bottom0" type="passenger"/>
    <trip id="258" depart="120.70" from="top0A0" to="top0A0.250.00" type="passenger"/>
    <trip id="259" depart="121.90" from="bottom0A0.250.00" to="A0top0" type="passenger"/>
    <trip id="260" depart="122.75" from="right0A0.250.00" to="left0A0.250.00" type="passenger"/>
    <trip id="261" depart="122.85" from="bottom0A0" to="top0A0.250.00" type="passenger"/>
    <trip id="262" depart="122.95" from="bottom0A0" to="A0right0" type="passenger"/>
    <trip id="263" depart="124.70" from="top0A0.250.00" to="A0right0" type="passenger"/>
    <trip id="264" depart="124.80" from="left0A0.250.00" to="right0A0.250.00" type="passenger"/>
    <trip id="265" depart="124.80" from="top0A0.250.00" to="top0A0.250.00" type="passenger"/>
    <trip id="266" depart="124.85" from="bottom0A0.250.00" to="A0right0" type="passenger"/>
    <trip id="267" depart="125.10" from="bottom0A0" to="A0bottom0" type="passenger"/>
    <trip id="268" depart="126.20" from="top0A0.250.00" to="A0right0" type="passenger"/>
    <trip id="269" depart="126.45" from="bottom0A0" to="A0right0" type="passenger"/>
    <trip id="270" depart="126.60" from="right0A0" to="left0A0.250.00" type="passenger"/>
    <trip id="271" depart="128.00" from="top0A0" to="bottom0A0.250.00" type="passenger"/>
    <trip id="272" depart="128.15" from="top0A0" to="A0top0" type="passenger"/>
    <trip id="273" depart="128.35" from="top0A0.250.00" to="A0right0" type="passenger"/>
    <trip id="274" depart="128.90" from="bottom0A0.250.00" to="bottom0A0.250.00" type="passenger"/>
    <trip id="275" depart="129.10" from="left0A0.250.00" to="bottom0A0.250.00" type="passenger"/>
    <trip id="276" depart="129.50" from="top0A0.250.00" to="left0A0.250.00" type="passenger"/>
    <trip id="277" depart="129.85" from="left0A0.250.00" to="A0top0" type="passenger"/>
    <trip id="278" depart="130.85" from="top0A0.250.00" to="top0A0.250.00" type="passenger"/>
    <trip id="279" depart="130.85" from="left0A0.250.00" to="right0A0.250.00" type="passenger"/>
    <trip id="280" depart="131.30" from="left0A0.250.00" to="A0top0" type="passenger"/>
    <trip id="281" depart="131.80" from="top0A0" to="left0A0.250.00" type="passenger"/>
    <trip id="282" depart="132.40" from="left0A0" to="right0A0.250.00" type="passenger"/>
    <trip id="283" depart="133.20" from="bottom0A0" to="right0A0.250.00" type="passenger"/>
    <trip id="284" depart="133.40" from="bottom0A0" to="A0top0" type="passenger"/>
    <trip id="285" depart="133.80" from="top0A0.250.00" to="left0A0.250.00" type="passenger"/>
    <trip id="286" depart="133.95" from="right0A0.250.00" to="A0bottom0" type="passenger"/>
    <trip id="287" depart="134.20" from="left0A0.250.00" to="top0A0.250.00" type="passenger"/>
    <trip id="288" depart="134.35" from="top0A0.250.00" to="A0right0" type="passenger"/>
    <trip id="289" depart="134.35" from="left0A0" to="bottom0A0.250.00" type="passenger"/>
    <trip id="290" depart="134.50" from="right0A0" to="bottom0A0.250.00" type="passenger"/>
    <trip id="291" depart="134.55" from="bottom0A0.250.00" to="A0right0" type="passenger"/>
    <trip id="292" depart="135.35" from="left0A0" to="bottom0A0.250.00" type="passenger"/>
    <trip id="293" depart="135.50" from="bottom0A0.250.00" to="left0A0.250.00" type="passenger"/>
    <trip id="294" depart="135.60" from="left0A0" to="top0A0.250.00" type="passenger"/>
    <trip id="295" depart="136.05" from="right0A0" to="top0A0.250.00" type="passenger"/>
    <trip id="296" depart="136.15" from="left0A0.250.00" to="A0right0" type="passenger"/>
    <trip id="297" depart="136.20" from="left0A0.250.00" to="top0A0.250.00" type="passenger"/>
    <trip id="298" depart="136.90" from="right0A0.250.00" to="bottom0A0.250.00" type="passenger"/>
    <trip id="299" depart="136.90" from="top0A0" to="right0A0.250.00" type="passenger"/>
    <trip id="300" depart="137.35" from="right0A0.250.00" to="bottom0A0.250.00" type="passenger"/>
    <trip id="301" depart="137.55" from="right0A0.250.00" to="right0A0.250.00" type="passenger"/>
    <trip id="302" depart="140.25" from="top0A0.250.00" to="left0A0.250.00" type="passenger"/>
    <trip id="303" depart="140.40" from="right0A0" to="A0right0" type="passenger"/>
    <trip id="304" depart="140.80" from="top0A0.250.00" to="top0A0.250.00" type="passenger"/>
    <trip id="305" depart="141.05" from="left0A0.250.00" to="left0A0.250.00" type="passenger"/>
    <trip id="306" depart="141.50" from="bottom0A0.250.00" to="top0A0.250.00" type="passenger"/>
    <trip id="307" depart="141.60" from="left0A0.250.00" to="right0A0.250.00" type="passenger"/>
    <trip id="308" depart="142.55" from="left0A0.250.00" to="A0right0" type="passenger"/>
    <trip id="309" depart="143.05" from="left0A0.250.00" to="top0A0.250.00" type="passenger"/>
    <trip id="310" depart="143.80" from="top0A0.250.00" to="bottom0A0.250.00" type="passenger"/>
    <trip id="311" depart="144.40" from="right0A0" to="right0A0.250.00" type="passenger"/>
    <trip id="312" depart="144.75" from="top0A0" to="A0left0" type="passenger"/>
    <trip id="313" depart="145.35" from="top0A0" to="A0left0" type="passenger"/>
    <trip id="314" depart="145.45" from="right0A0" to="A0bottom0" type="passenger"/>
    <trip id="315" depart="145.45" from="bottom0A0.250.00" to="A0bottom0" type="passenger"/>
    <trip id="316" depart="145.95" from="top0A0" to="top0A0.250.00" type="passenger"/>
    <trip id="317" depart="146.25" from="right0A0" to="left0A0.250.00" type="passenger"/>
    <trip id="318" depart="146.50" from="right0A0.250.00" to="bottom0A0.250.00" type="passenger"/>
    <trip id="319" depart="146.55" from="top0A0.250.00" to="A0left0" type="passenger"/>
    <trip id="320" depart="146.90" from="top0A0" to="A0right0" type="passenger"/>
    <trip id="321" depart="146.95" from="top0A0" to="right0A0.250.00" type="passenger"/>
    <trip id="322" depart="148.10" from="bottom0A0" to="A0right0" type="passenger"/>
    <trip id="323" depart="148.15" from="bottom0A0.250.00" to="left0A0.250.00" type="passenger"/>
    <trip id="324" depart="148.35" from="bottom0A0" to="A0bottom0" type="passenger"/>