<?xml version="1.0" encoding="UTF-8"?>

<!-- generated on 2023-04-26 16:56:59.834936 by randomTrips.py UNKNOWN
<configuration>
    <begin value="0"/>
    <end value="900"/>
    <insertion-rate value="8000.0"/>
    <net-file value="/home/franky3er/Documents/code/HieraGLight/scenarios/grid/1x1-500m/train/63-scenario/network.net.xml"/>
    <random value="True"/>
    <random-depart value="True"/>
    <route-file value="/home/franky3er/Documents/code/HieraGLight/scenarios/grid/1x1-500m/train/63-scenario/routes.rou.xml"/>
    <seed value="63"/>
    <output-trip-file value="/home/franky3er/Documents/code/HieraGLight/scenarios/grid/1x1-500m/train/63-scenario/trips.trips.xml"/>
    <vehicle-class value="passenger"/>
</configuration>
-->

<routes xmlns:xsi="http://www.w3.org/2001/XMLSchema-instance" xsi:noNamespaceSchemaLocation="http://sumo.dlr.de/xsd/routes_file.xsd">
    <vType id="passenger" vClass="passenger"/>
    <trip id="0" depart="2.65" from="bottom0A0" to="top0A0.250.00" type="passenger"/>
    <trip id="1" depart="3.00" from="right0A0.250.00" to="bottom0A0.250.00" type="passenger"/>
    <trip id="2" depart="3.40" from="bottom0A0" to="left0A0.250.00" type="passenger"/>
    <trip id="3" depart="3.50" from="right0A0.250.00" to="A0top0" type="passenger"/>
    <trip id="4" depart="3.50" from="left0A0" to="A0right0" type="passenger"/>
    <trip id="5" depart="3.65" from="left0A0" to="A0right0" type="passenger"/>
    <trip id="6" depart="3.95" from="right0A0" to="top0A0.250.00" type="passenger"/>
    <trip id="7" depart="4.15" from="bottom0A0.250.00" to="A0bottom0" type="passenger"/>
    <trip id="8" depart="4.80" from="left0A0" to="bottom0A0.250.00" type="passenger"/>
    <trip id="9" depart="5.95" from="bottom0A0.250.00" to="bottom0A0.250.00" type="passenger"/>
    <trip id="10" depart="6.90" from="top0A0.250.00" to="bottom0A0.250.00" type="passenger"/>
    <trip id="11" depart="7.30" from="right0A0" to="A0right0" type="passenger"/>
    <trip id="12" depart="7.35" from="top0A0" to="A0right0" type="passenger"/>
    <trip id="13" depart="7.35" from="left0A0.250.00" to="A0top0" type="passenger"/>
    <trip id="14" depart="8.25" from="bottom0A0.250.00" to="A0bottom0" type="passenger"/>
    <trip id="15" depart="8.40" from="left0A0.250.00" to="A0bottom0" type="passenger"/>
    <trip id="16" depart="8.70" from="left0A0" to="A0right0" type="passenger"/>
    <trip id="17" depart="9.75" from="right0A0" to="right0A0.250.00" type="passenger"/>
    <trip id="18" depart="9.95" from="right0A0" to="right0A0.250.00" type="passenger"/>
    <trip id="19" depart="10.25" from="left0A0" to="A0right0" type="passenger"/>
    <trip id="20" depart="10.40" from="top0A0.250.00" to="top0A0.250.00" type="passenger"/>
    <trip id="21" depart="10.55" from="bottom0A0.250.00" to="left0A0.250.00" type="passenger"/>
    <trip id="22" depart="11.30" from="top0A0.250.00" to="A0bottom0" type="passenger"/>
    <trip id="23" depart="11.40" from="right0A0.250.00" to="top0A0.250.00" type="passenger"/>
    <trip id="24" depart="11.50" from="bottom0A0.250.00" to="A0left0" type="passenger"/>
    <trip id="25" depart="11.95" from="bottom0A0" to="A0left0" type="passenger"/>
    <trip id="26" depart="12.30" from="right0A0.250.00" to="A0right0" type="passenger"/>
    <trip id="27" depart="12.35" from="left0A0" to="bottom0A0.250.00" type="passenger"/>
    <trip id="28" depart="13.05" from="top0A0.250.00" to="A0top0" type="passenger"/>
    <trip id="29" depart="13.10" from="top0A0" to="A0right0" type="passenger"/>
    <trip id="30" depart="13.80" from="right0A0.250.00" to="left0A0.250.00" type="passenger"/>
    <trip id="31" depart="14.90" from="right0A0" to="bottom0A0.250.00" type="passenger"/>
    <trip id="32" depart="15.15" from="right0A0.250.00" to="A0top0" type="passenger"/>
    <trip id="33" depart="15.35" from="left0A0.250.00" to="A0bottom0" type="passenger"/>
    <trip id="34" depart="15.95" from="right0A0" to="top0A0.250.00" type="passenger"/>
    <trip id="35" depart="16.15" from="right0A0.250.00" to="A0bottom0" type="passenger"/>
    <trip id="36" depart="16.30" from="top0A0.250.00" to="A0left0" type="passenger"/>
    <trip id="37" depart="16.60" from="top0A0" to="bottom0A0.250.00" type="passenger"/>
    <trip id="38" depart="16.65" from="bottom0A0.250.00" to="bottom0A0.250.00" type="passenger"/>
    <trip id="39" depart="17.05" from="right0A0.250.00" to="right0A0.250.00" type="passenger"/>
    <trip id="40" depart="17.20" from="right0A0" to="A0left0" type="passenger"/>
    <trip id="41" depart="17.90" from="left0A0" to="right0A0.250.00" type="passenger"/>
    <trip id="42" depart="18.05" from="left0A0.250.00" to="right0A0.250.00" type="passenger"/>
    <trip id="43" depart="18.35" from="left0A0.250.00" to="A0bottom0" type="passenger"/>
    <trip id="44" depart="18.50" from="left0A0.250.00" to="top0A0.250.00" type="passenger"/>
    <trip id="45" depart="18.50" from="right0A0.250.00" to="A0left0" type="passenger"/>
    <trip id="46" depart="18.60" from="top0A0.250.00" to="right0A0.250.00" type="passenger"/>
    <trip id="47" depart="18.95" from="bottom0A0" to="bottom0A0.250.00" type="passenger"/>
    <trip id="48" depart="19.75" from="left0A0" to="bottom0A0.250.00" type="passenger"/>
    <trip id="49" depart="20.05" from="left0A0" to="A0bottom0" type="passenger"/>
    <trip id="50" depart="20.85" from="bottom0A0" to="A0right0" type="passenger"/>
    <trip id="51" depart="21.00" from="top0A0.250.00" to="right0A0.250.00" type="passenger"/>
    <trip id="52" depart="21.55" from="top0A0.250.00" to="A0left0" type="passenger"/>
    <trip id="53" depart="21.60" from="bottom0A0.250.00" to="bottom0A0.250.00" type="passenger"/>
    <trip id="54" depart="21.90" from="left0A0" to="right0A0.250.00" type="passenger"/>
    <trip id="55" depart="22.30" from="right0A0.250.00" to="A0bottom0" type="passenger"/>
    <trip id="56" depart="22.45" from="bottom0A0" to="A0left0" type="passenger"/>
    <trip id="57" depart="22.95" from="right0A0" to="A0right0" type="passenger"/>
    <trip id="58" depart="23.40" from="left0A0.250.00" to="right0A0.250.00" type="passenger"/>
    <trip id="59" depart="23.50" from="left0A0" to="A0top0" type="passenger"/>
    <trip id="60" depart="23.60" from="right0A0" to="A0bottom0" type="passenger"/>
    <trip id="61" depart="24.10" from="right0A0.250.00" to="A0left0" type="passenger"/>
    <trip id="62" depart="24.50" from="left0A0.250.00" to="top0A0.250.00" type="passenger"/>
    <trip id="63" depart="24.75" from="top0A0.250.00" to="A0top0" type="passenger"/>
    <trip id="64" depart="24.80" from="top0A0.250.00" to="A0left0" type="passenger"/>
    <trip id="65" depart="24.85" from="right0A0" to="A0right0" type="passenger"/>
    <trip id="66" depart="25.40" from="top0A0" to="left0A0.250.00" type="passenger"/>
    <trip id="67" depart="25.40" from="bottom0A0.250.00" to="A0top0" type="passenger"/>
    <trip id="68" depart="26.50" from="top0A0.250.00" to="left0A0.250.00" type="passenger"/>
    <trip id="69" depart="27.50" from="left0A0.250.00" to="A0right0" type="passenger"/>
    <trip id="70" depart="27.95" from="right0A0.250.00" to="right0A0.250.00" type="passenger"/>
    <trip id="71" depart="28.30" from="bottom0A0.250.00" to="left0A0.250.00" type="passenger"/>
    <trip id="72" depart="28.40" from="top0A0" to="A0right0" type="passenger"/>
    <trip id="73" depart="28.70" from="left0A0" to="A0bottom0" type="passenger"/>
    <trip id="74" depart="29.85" from="right0A0.250.00" to="bottom0A0.250.00" type="passenger"/>
    <trip id="75" depart="30.15" from="right0A0.250.00" to="top0A0.250.00" type="passenger"/>
    <trip id="76" depart="30.65" from="bottom0A0" to="right0A0.250.00" type="passenger"/>
    <trip id="77" depart="30.75" from="left0A0.250.00" to="A0left0" type="passenger"/>
    <trip id="78" depart="30.95" from="left0A0.250.00" to="bottom0A0.250.00" type="passenger"/>
    <trip id="79" depart="31.05" from="bottom0A0.250.00" to="A0top0" type="passenger"/>
    <trip id="80" depart="32.20" from="right0A0" to="bottom0A0.250.00" type="passenger"/>
    <trip id="81" depart="32.25" from="left0A0" to="A0bottom0" type="passenger"/>
    <trip id="82" depart="32.95" from="bottom0A0.250.00" to="A0top0" type="passenger"/>
    <trip id="83" depart="33.20" from="right0A0.250.00" to="right0A0.250.00" type="passenger"/>
    <trip id="84" depart="33.30" from="bottom0A0.250.00" to="A0left0" type="passenger"/>
    <trip id="85" depart="33.35" from="bottom0A0" to="A0left0" type="passenger"/>
    <trip id="86" depart="33.50" from="top0A0.250.00" to="A0left0" type="passenger"/>
    <trip id="87" depart="34.45" from="bottom0A0.250.00" to="A0bottom0" type="passenger"/>
    <trip id="88" depart="34.85" from="top0A0" to="A0bottom0" type="passenger"/>
    <trip id="89" depart="35.00" from="top0A0" to="right0A0.250.00" type="passenger"/>
    <trip id="90" depart="35.55" from="left0A0" to="A0bottom0" type="passenger"/>
    <trip id="91" depart="36.95" from="left0A0.250.00" to="top0A0.250.00" type="passenger"/>
    <trip id="92" depart="37.00" from="top0A0" to="A0left0" type="passenger"/>
    <trip id="93" depart="37.15" from="right0A0.250.00" to="right0A0.250.00" type="passenger"/>
    <trip id="94" depart="37.20" from="bottom0A0.250.00" to="A0top0" type="passenger"/>
    <trip id="95" depart="37.35" from="bottom0A0" to="left0A0.250.00" type="passenger"/>
    <trip id="96" depart="37.85" from="right0A0.250.00" to="left0A0.250.00" type="passenger"/>
    <trip id="97" depart="38.05" from="top0A0.250.00" to="top0A0.250.00" type="passenger"/>
    <trip id="98" depart="38.25" from="top0A0" to="right0A0.250.00" type="passenger"/>
    <trip id="99" depart="38.40" from="top0A0" to="A0top0" type="passenger"/>
    <trip id="100" depart="38.45" from="top0A0" to="A0bottom0" type="passenger"/>
    <trip id="101" depart="38.75" from="right0A0" to="right0A0.250.00" type="passenger"/>
    <trip id="102" depart="39.80" from="right0A0.250.00" to="top0A0.250.00" type="passenger"/>
    <trip id="103" depart="40.05" from="bottom0A0.250.00" to="right0A0.250.00" type="passenger"/>
    <trip id="104" depart="40.50" from="bottom0A0.250.00" to="A0top0" type="passenger"/>
    <trip id="105" depart="40.85" from="bottom0A0.250.00" to="right0A0.250.00" type="passenger"/>
    <trip id="106" depart="40.85" from="bottom0A0" to="A0bottom0" type="passenger"/>
    <trip id="107" depart="41.10" from="top0A0" to="A0bottom0" type="passenger"/>
    <trip id="108" depart="41.50" from="top0A0" to="top0A0.250.00" type="passenger"/>
    <trip id="109" depart="43.00" from="right0A0.250.00" to="A0right0" type="passenger"/>
    <trip id="110" depart="43.25" from="top0A0.250.00" to="A0top0" type="passenger"/>
    <trip id="111" depart="43.50" from="bottom0A0.250.00" to="A0left0" type="passenger"/>
    <trip id="112" depart="43.60" from="left0A0.250.00" to="right0A0.250.00" type="passenger"/>
    <trip id="113" depart="44.25" from="bottom0A0.250.00" to="bottom0A0.250.00" type="passenger"/>
    <trip id="114" depart="44.50" from="top0A0.250.00" to="A0bottom0" type="passenger"/>
    <trip id="115" depart="44.95" from="left0A0" to="A0bottom0" type="passenger"/>
    <trip id="116" depart="45.35" from="left0A0.250.00" to="A0bottom0" type="passenger"/>
    <trip id="117" depart="46.25" from="bottom0A0.250.00" to="left0A0.250.00" type="passenger"/>
    <trip id="118" depart="46.70" from="top0A0.250.00" to="A0bottom0" type="passenger"/>
    <trip id="119" depart="47.30" from="left0A0.250.00" to="right0A0.250.00" type="passenger"/>
    <trip id="120" depart="47.45" from="right0A0.250.00" to="top0A0.250.00" type="passenger"/>
    <trip id="121" depart="47.90" from="bottom0A0.250.00" to="bottom0A0.250.00" type="passenger"/>
    <trip id="122" depart="48.15" from="right0A0.250.00" to="A0right0" type="passenger"/>
    <trip id="123" depart="49.30" from="left0A0" to="left0A0.250.00" type="passenger"/>
    <trip id="124" depart="49.80" from="right0A0.250.00" to="left0A0.250.00" type="passenger"/>
    <trip id="125" depart="51.10" from="left0A0" to="A0right0" type="passenger"/>
    <trip id="126" depart="51.20" from="right0A0" to="A0top0" type="passenger"/>
    <trip id="127" depart="51.40" from="bottom0A0" to="bottom0A0.250.00" type="passenger"/>
    <trip id="128" depart="51.70" from="left0A0" to="A0left0" type="passenger"/>
    <trip id="129" depart="52.20" from="left0A0" to="A0right0" type="passenger"/>
    <trip id="130" depart="53.00" from="bottom0A0.250.00" to="left0A0.250.00" type="passenger"/>
    <trip id="131" depart="53.80" from="top0A0" to="A0left0" type="passenger"/>
    <trip id="132" depart="54.70" from="top0A0.250.00" to="A0bottom0" type="passenger"/>
    <trip id="133" depart="54.70" from="left0A0.250.00" to="A0right0" type="passenger"/>
    <trip id="134" depart="54.75" from="right0A0.250.00" to="A0left0" type="passenger"/>
    <trip id="135" depart="55.15" from="top0A0" to="A0right0" type="passenger"/>
    <trip id="136" depart="55.80" from="top0A0" to="A0top0" type="passenger"/>
    <trip id="137" depart="56.05" from="right0A0.250.00" to="A0top0" type="passenger"/>
    <trip id="138" depart="56.05" from="left0A0.250.00" to="A0bottom0" type="passenger"/>
    <trip id="139" depart="57.30" from="bottom0A0" to="A0top0" type="passenger"/>
    <trip id="140" depart="57.75" from="top0A0" to="left0A0.250.00" type="passenger"/>
    <trip id="141" depart="58.75" from="left0A0" to="top0A0.250.00" type="passenger"/>
    <trip id="142" depart="59.75" from="left0A0" to="right0A0.250.00" type="passenger"/>
    <trip id="143" depart="60.65" from="bottom0A0" to="A0top0" type="passenger"/>
    <trip id="144" depart="60.80" from="right0A0.250.00" to="A0left0" type="passenger"/>
    <trip id="145" depart="61.05" from="bottom0A0" to="A0bottom0" type="passenger"/>
    <trip id="146" depart="61.20" from="top0A0" to="top0A0.250.00" type="passenger"/>
    <trip id="147" depart="61.70" from="right0A0" to="top0A0.250.00" type="passenger"/>
    <trip id="148" depart="62.00" from="bottom0A0" to="right0A0.250.00" type="passenger"/>
    <trip id="149" depart="62.10" from="left0A0.250.00" to="A0left0" type="passenger"/>
    <trip id="150" depart="62.30" from="bottom0A0" to="bottom0A0.250.00" type="passenger"/>
    <trip id="151" depart="63.45" from="top0A0" to="A0bottom0" type="passenger"/>
    <trip id="152" depart="65.45" from="left0A0" to="bottom0A0.250.00" type="passenger"/>
    <trip id="153" depart="67.15" from="right0A0.250.00" to="A0right0" type="passenger"/>
    <trip id="154" depart="67.85" from="top0A0" to="right0A0.250.00" type="passenger"/>
    <trip id="155" depart="68.15" from="left0A0" to="left0A0.250.00" type="passenger"/>
    <trip id="156" depart="68.90" from="left0A0" to="A0top0" type="passenger"/>
    <trip id="157" depart="69.60" from="right0A0.250.00" to="right0A0.250.00" type="passenger"/>
    <trip id="158" depart="69.80" from="top0A0" to="left0A0.250.00" type="passenger"/>
    <trip id="159" depart="70.25" from="right0A0" to="right0A0.250.00" type="passenger"/>
    <trip id="160" depart="70.90" from="left0A0.250.00" to="A0bottom0" type="passenger"/>
    <trip id="161" depart="71.15" from="left0A0.250.00" to="A0right0" type="passenger"/>
    <trip id="162" depart="71.50" from="bottom0A0.250.00" to="bottom0A0.250.00" type="passenger"/>
    <trip id="163" depart="71.80" from="bottom0A0.250.00" to="right0A0.250.00" type="passenger"/>
    <trip id="164" depart="72.15" from="left0A0" to="A0left0" type="passenger"/>
    <trip id="165" depart="72.25" from="bottom0A0.250.00" to="A0bottom0" type="passenger"/>
    <trip id="166" depart="72.35" from="right0A0" to="left0A0.250.00" type="passenger"/>
    <trip id="167" depart="72.50" from="top0A0" to="left0A0.250.00" type="passenger"/>
    <trip id="168" depart="74.20" from="left0A0" to="A0left0" type="passenger"/>
    <trip id="169" depart="74.85" from="bottom0A0" to="bottom0A0.250.00" type="passenger"/>
    <trip id="170" depart="75.20" from="top0A0" to="A0right0" type="passenger"/>
    <trip id="171" depart="75.35" from="bottom0A0" to="A0top0" type="passenger"/>
    <trip id="172" depart="75.40" from="right0A0" to="A0bottom0" type="passenger"/>
    <trip id="173" depart="75.60" from="right0A0.250.00" to="top0A0.250.00" type="passenger"/>
    <trip id="174" depart="76.00" from="bottom0A0" to="right0A0.250.00" type="passenger"/>
    <trip id="175" depart="76.30" from="left0A0.250.00" to="left0A0.250.00" type="passenger"/>
    <trip id="176" depart="77.00" from="right0A0" to="A0top0" type="passenger"/>
    <trip id="177" depart="77.10" from="bottom0A0.250.00" to="A0right0" type="passenger"/>
    <trip id="178" depart="77.30" from="right0A0" to="A0top0" type="passenger"/>
    <trip id="179" depart="78.35" from="left0A0.250.00" to="A0bottom0" type="passenger"/>
    <trip id="180" depart="78.85" from="bottom0A0" to="A0bottom0" type="passenger"/>
    <trip id="181" depart="78.85" from="left0A0.250.00" to="A0right0" type="passenger"/>
    <trip id="182" depart="79.10" from="left0A0.250.00" to="right0A0.250.00" type="passenger"/>
    <trip id="183" depart="79.55" from="right0A0.250.00" to="A0left0" type="passenger"/>
    <trip id="184" depart="80.30" from="left0A0.250.00" to="A0left0" type="passenger"/>
    <trip id="185" depart="80.35" from="left0A0" to="right0A0.250.00" type="passenger"/>
    <trip id="186" depart="80.45" from="left0A0" to="A0right0" type="passenger"/>
    <trip id="187" depart="81.55" from="top0A0.250.00" to="A0top0" type="passenger"/>
    <trip id="188" depart="82.05" from="right0A0" to="left0A0.250.00" type="passenger"/>
    <trip id="189" depart="83.05" from="right0A0.250.00" to="top0A0.250.00" type="passenger"/>
    <trip id="190" depart="83.25" from="bottom0A0.250.00" to="left0A0.250.00" type="passenger"/>
    <trip id="191" depart="83.30" from="left0A0" to="A0bottom0" type="passenger"/>
    <trip id="192" depart="84.45" from="bottom0A0.250.00" to="left0A0.250.00" type="passenger"/>
    <trip id="193" depart="85.20" from="top0A0" to="A0top0" type="passenger"/>
    <trip id="194" depart="85.25" from="top0A0" to="A0left0" type="passenger"/>
    <trip id="195" depart="85.50" from="bottom0A0" to="left0A0.250.00" type="passenger"/>
    <trip id="196" depart="85.60" from="top0A0" to="top0A0.250.00" type="passenger"/>
    <trip id="197" depart="86.35" from="top0A0.250.00" to="A0top0" type="passenger"/>
    <trip id="198" depart="87.30" from="left0A0.250.00" to="A0top0" type="passenger"/>
    <trip id="199" depart="88.85" from="left0A0" to="left0A0.250.00" type="passenger"/>
    <trip id="200" depart="89.20" from="left0A0.250.00" to="A0left0" type="passenger"/>
    <trip id="201" depart="89.55" from="bottom0A0.250.00" to="A0right0" type="passenger"/>
    <trip id="202" depart="89.85" from="right0A0" to="A0top0" type="passenger"/>
    <trip id="203" depart="90.55" from="left0A0.250.00" to="A0top0" type="passenger"/>
    <trip id="204" depart="90.85" from="left0A0.250.00" to="A0top0" type="passenger"/>
    <trip id="205" depart="92.05" from="right0A0.250.00" to="A0top0" type="passenger"/>
    <trip id="206" depart="92.45" from="bottom0A0" to="A0left0" type="passenger"/>
    <trip id="207" depart="92.55" from="top0A0" to="right0A0.250.00" type="passenger"/>
    <trip id="208" depart="92.60" from="left0A0" to="bottom0A0.250.00" type="passenger"/>
    <trip id="209" depart="93.30" from="top0A0.250.00" to="A0right0" type="passenger"/>
    <trip id="210" depart="94.05" from="top0A0" to="left0A0.250.00" type="passenger"/>
    <trip id="211" depart="94.15" from="bottom0A0.250.00" to="A0right0" type="passenger"/>
    <trip id="212" depart="94.65" from="bottom0A0" to="A0top0" type="passenger"/>
    <trip id="213" depart="95.45" from="bottom0A0" to="A0top0" type="passenger"/>
    <trip id="214" depart="95.70" from="top0A0.250.00" to="left0A0.250.00" type="passenger"/>
    <trip id="215" depart="95.70" from="right0A0" to="top0A0.250.00" type="passenger"/>
    <trip id="216" depart="95.95" from="left0A0" to="A0left0" type="passenger"/>
    <trip id="217" depart="96.05" from="right0A0" to="A0top0" type="passenger"/>
    <trip id="218" depart="96.50" from="bottom0A0.250.00" to="left0A0.250.00" type="passenger"/>
    <trip id="219" depart="96.55" from="bottom0A0.250.00" to="right0A0.250.00" type="passenger"/>
    <trip id="220" depart="96.95" from="left0A0" to="A0right0" type="passenger"/>
    <trip id="221" depart="97.10" from="left0A0" to="left0A0.250.00" type="passenger"/>
    <trip id="222" depart="97.10" from="right0A0.250.00" to="A0top0" type="passenger"/>
    <trip id="223" depart="97.50" from="top0A0" to="top0A0.250.00" type="passenger"/>
    <trip id="224" depart="99.20" from="top0A0.250.00" to="A0bottom0" type="passenger"/>
    <trip id="225" depart="99.60" from="bottom0A0.250.00" to="A0top0" type="passenger"/>
    <trip id="226" depart="100.25" from="bottom0A0.250.00" to="right0A0.250.00" type="passenger"/>
    <trip id="227" depart="101.00" from="right0A0" to="A0left0" type="passenger"/>
    <trip id="228" depart="101.10" from="top0A0" to="A0top0" type="passenger"/>
    <trip id="229" depart="101.30" from="bottom0A0.250.00" to="right0A0.250.00" type="passenger"/>
    <trip id="230" depart="101.50" from="left0A0.250.00" to="A0right0" type="passenger"/>
    <trip id="231" depart="101.75" from="left0A0.250.00" to="A0left0" type="passenger"/>
    <trip id="232" depart="102.80" from="right0A0.250.00" to="A0top0" type="passenger"/>
    <trip id="233" depart="103.55" from="bottom0A0.250.00" to="A0bottom0" type="passenger"/>
    <trip id="234" depart="103.60" from="bottom0A0" to="bottom0A0.250.00" type="passenger"/>
    <trip id="235" depart="103.85" from="top0A0.250.00" to="right0A0.250.00" type="passenger"/>
    <trip id="236" depart="103.85" from="bottom0A0" to="top0A0.250.00" type="passenger"/>
    <trip id="237" depart="103.90" from="left0A0" to="A0right0" type="passenger"/>
    <trip id="238" depart="104.50" from="top0A0.250.00" to="A0right0" type="passenger"/>
    <trip id="239" depart="105.25" from="right0A0" to="right0A0.250.00" type="passenger"/>
    <trip id="240" depart="105.35" from="top0A0.250.00" to="top0A0.250.00" type="passenger"/>
    <trip id="241" depart="105.35" from="left0A0" to="right0A0.250.00" type="passenger"/>
    <trip id="242" depart="106.40" from="right0A0.250.00" to="left0A0.250.00" type="passenger"/>
    <trip id="243" depart="106.75" from="top0A0" to="top0A0.250.00" type="passenger"/>
    <trip id="244" depart="107.00" from="top0A0" to="top0A0.250.00" type="passenger"/>
    <trip id="245" depart="107.35" from="right0A0" to="bottom0A0.250.00" type="passenger"/>
    <trip id="246" depart="107.70" from="top0A0.250.00" to="left0A0.250.00" type="passenger"/>
    <trip id="247" depart="107.80" from="bottom0A0" to="left0A0.250.00" type="passenger"/>
    <trip id="248" depart="108.00" from="bottom0A0.250.00" to="right0A0.250.00" type="passenger"/>
    <trip id="249" depart="108.70" from="right0A0.250.00" to="right0A0.250.00" type="passenger"/>
    <trip id="250" depart="109.20" from="left0A0" to="left0A0.250.00" type="passenger"/>
    <trip id="251" depart="109.70" from="bottom0A0" to="top0A0.250.00" type="passenger"/>
    <trip id="252" depart="109.80" from="top0A0.250.00" to="A0left0" type="passenger"/>
    <trip id="253" depart="110.30" from="top0A0" to="A0left0" type="passenger"/>
    <trip id="254" depart="110.90" from="top0A0" to="A0top0" type="passenger"/>
    <trip id="255" depart="111.20" from="top0A0" to="right0A0.250.00" type="passenger"/>
    <trip id="256" depart="111.60" from="right0A0" to="A0left0" type="passenger"/>
    <trip id="257" depart="113.15" from="bottom0A0" to="right0A0.250.00" type="passenger"/>
    <trip id="258" depart="113.75" from="top0A0.250.00" to="top0A0.250.00" type="passenger"/>
    <trip id="259" depart="113.90" from="left0A0.250.00" to="A0top0" type="passenger"/>
    <trip id="260" depart="113.90" from="right0A0" to="top0A0.250.00" type="passenger"/>
    <trip id="261" depart="114.05" from="bottom0A0" to="right0A0.250.00" type="passenger"/>
    <trip id="262" depart="114.70" from="right0A0.250.00" to="left0A0.250.00" type="passenger"/>
    <trip id="263" depart="115.75" from="top0A0.250.00" to="A0left0" type="passenger"/>
    <trip id="264" depart="115.95" from="top0A0.250.00" to="top0A0.250.00" type="passenger"/>
    <trip id="265" depart="117.30" from="bottom0A0.250.00" to="A0right0" type="passenger"/>
    <trip id="266" depart="117.75" from="top0A0" to="A0bottom0" type="passenger"/>
    <trip id="267" depart="117.90" from="top0A0" to="bottom0A0.250.00" type="passenger"/>
    <trip id="268" depart="118.10" from="left0A0" to="A0top0" type="passenger"/>
    <trip id="269" depart="118.35" from="right0A0.250.00" to="right0A0.250.00" type="passenger"/>
    <trip id="270" depart="118.65" from="top0A0" to="bottom0A0.250.00" type="passenger"/>
    <trip id="271" depart="119.35" from="left0A0.250.00" to="right0A0.250.00" type="passenger"/>
    <trip id="272" depart="119.90" from="bottom0A0.250.00" to="right0A0.250.00" type="passenger"/>
    <trip id="273" depart="120.05" from="right0A0" to="A0right0" type="passenger"/>
    <trip id="274" depart="120.15" from="bottom0A0" to="A0right0" type="passenger"/>
    <trip id="275" depart="120.50" from="bottom0A0.250.00" to="top0A0.250.00" type="passenger"/>
    <trip id="276" depart="121.75" from="left0A0.250.00" to="top0A0.250.00" type="passenger"/>
    <trip id="277" depart="121.80" from="top0A0.250.00" to="A0bottom0" type="passenger"/>
    <trip id="278" depart="121.85" from="right0A0" to="A0top0" type="passenger"/>
    <trip id="279" depart="121.95" from="right0A0.250.00" to="right0A0.250.00" type="passenger"/>
    <trip id="280" depart="122.10" from="bottom0A0" to="left0A0.250.00" type="passenger"/>
    <trip id="281" depart="122.30" from="right0A0.250.00" to="right0A0.250.00" type="passenger"/>
    <trip id="282" depart="122.35" from="left0A0" to="A0bottom0" type="passenger"/>
    <trip id="283" depart="122.90" from="top0A0" to="bottom0A0.250.00" type="passenger"/>
    <trip id="284" depart="123.10" from="left0A0.250.00" to="A0right0" type="passenger"/>
    <trip id="285" depart="123.90" from="top0A0.250.00" to="A0top0" type="passenger"/>
    <trip id="286" depart="124.65" from="top0A0" to="A0right0" type="passenger"/>
    <trip id="287" depart="125.05" from="left0A0" to="A0top0" type="passenger"/>
    <trip id="288" depart="128.15" from="bottom0A0.250.00" to="right0A0.250.00" type="passenger"/>
    <trip id="289" depart="128.25" from="left0A0" to="A0top0" type="passenger"/>
    <trip id="290" depart="129.10" from="bottom0A0.250.00" to="A0top0" type="passenger"/>
    <trip id="291" depart="129.15" from="right0A0.250.00" to="A0top0" type="passenger"/>
    <trip id="292" depart="129.55" from="left0A0" to="A0left0" type="passenger"/>
    <trip id="293" depart="129.70" from="left0A0.250.00" to="bottom0A0.250.00" type="passenger"/>
    <trip id="294" depart="129.90" from="bottom0A0.250.00" to="A0bottom0" type="passenger"/>
    <trip id="295" depart="130.05" from="left0A0.250.00" to="A0right0" type="passenger"/>
    <trip id="296" depart="130.10" from="top0A0" to="bottom0A0.250.00" type="passenger"/>
    <trip id="297" depart="130.15" from="right0A0.250.00" to="A0top0" type="passenger"/>
    <trip id="298" depart="130.95" from="right0A0" to="A0top0" type="passenger"/>
    <trip id="299" depart="131.20" from="right0A0" to="top0A0.250.00" type="passenger"/>
    <trip id="300" depart="131.30" from="left0A0.250.00" to="A0bottom0" type="passenger"/>
    <trip id="301" depart="131.55" from="left0A0" to="left0A0.250.00" type="passenger"/>
    <trip id="302" depart="131.70" from="left0A0.250.00" to="left0A0.250.00" type="passenger"/>
    <trip id="303" depart="131.75" from="top0A0.250.00" to="bottom0A0.250.00" type="passenger"/>
    <trip id="304" depart="132.75" from="top0A0" to="A0right0" type="passenger"/>
    <trip id="305" depart="134.15" from="left0A0.250.00" to="right0A0.250.00" type="passenger"/>
    <trip id="306" depart="134.50" from="left0A0.250.00" to="bottom0A0.250.00" type="passenger"/>
    <trip id="307" depart="134.60" from="bottom0A0.250.00" to="right0A0.250.00" type="passenger"/>
    <trip id="308" depart="134.65" from="right0A0.250.00" to="A0top0" type="passenger"/>
    <trip id="309" depart="134.90" from="top0A0.250.00" to="left0A0.250.00" type="passenger"/>
    <trip id="310" depart="135.30" from="top0A0" to="A0bottom0" type="passenger"/>
    <trip id="311" depart="136.25" from="top0A0.250.00" to="A0top0" type="passenger"/>
    <trip id="312" depart="136.35" from="left0A0" to="right0A0.250.00" type="passenger"/>
    <trip id="313" depart="136.75" from="top0A0.250.00" to="A0left0" type="passenger"/>
    <trip id="314" depart="136.85" from="right0A0.250.00" to="A0left0" type="passenger"/>
    <trip id="315" depart="136.95" from="left0A0.250.00" to="right0A0.250.00" type="passenger"/>
    <trip id="316" depart="137.80" from="top0A0" to="top0A0.250.00" type="passenger"/>
    <trip id="317" depart="138.20" from="left0A0.250.00" to="A0top0" type="passenger"/>
    <trip id="318" depart="138.50" from="right0A0" to="right0A0.250.00" type="passenger"/>
    <trip id="319" depart="139.25" from="left0A0.250.00" to="top0A0.250.00" type="passenger"/>
    <trip id="320" depart="139.35" from="bottom0A0.250.00" to="A0top0" type="passenger"/>
    <trip id="321" depart="139.55" from="bottom0A0" to="left0A0.250.00" type="passenger"/>
    <trip id="322" depart="139.90" from="right0A0" to="bottom0A0.250.00" type="passenger"/>
    <trip id="323" depart="139.95" from="bottom0A0.250.00" to="A0left0" type="passenger"/>
    <trip id="324" depart="140.35" from="right0A0" to="A0bottom0" type="passenger"/>
    <trip id="325" depart="140.50" from="right0A0" to="top0A0.250.00" type="passenger"/>
    <trip id="326" depart="140.55" from="right0A0.250.00" to="right0A0.250.00" type="passenger"/>