<?xml version="1.0" encoding="UTF-8"?>

<!-- generated on 2023-04-26 16:56:56.990067 by randomTrips.py UNKNOWN
<configuration>
    <begin value="0"/>
    <end value="900"/>
    <insertion-rate value="8000.0"/>
    <net-file value="/home/franky3er/Documents/code/HieraGLight/scenarios/grid/1x1-500m/train/56-scenario/network.net.xml"/>
    <random value="True"/>
    <random-depart value="True"/>
    <route-file value="/home/franky3er/Documents/code/HieraGLight/scenarios/grid/1x1-500m/train/56-scenario/routes.rou.xml"/>
    <seed value="56"/>
    <output-trip-file value="/home/franky3er/Documents/code/HieraGLight/scenarios/grid/1x1-500m/train/56-scenario/trips.trips.xml"/>
    <vehicle-class value="passenger"/>
</configuration>
-->

<routes xmlns:xsi="http://www.w3.org/2001/XMLSchema-instance" xsi:noNamespaceSchemaLocation="http://sumo.dlr.de/xsd/routes_file.xsd">
    <vType id="passenger" vClass="passenger"/>
    <trip id="0" depart="1.50" from="left0A0.250.00" to="top0A0.250.00" type="passenger"/>
    <trip id="1" depart="2.10" from="top0A0.250.00" to="left0A0.250.00" type="passenger"/>
    <trip id="2" depart="2.20" from="left0A0" to="A0right0" type="passenger"/>
    <trip id="3" depart="2.25" from="top0A0.250.00" to="A0right0" type="passenger"/>
    <trip id="4" depart="2.40" from="left0A0.250.00" to="A0bottom0" type="passenger"/>
    <trip id="5" depart="3.15" from="left0A0.250.00" to="A0right0" type="passenger"/>
    <trip id="6" depart="3.25" from="right0A0.250.00" to="top0A0.250.00" type="passenger"/>
    <trip id="7" depart="3.75" from="top0A0" to="right0A0.250.00" type="passenger"/>
    <trip id="8" depart="4.40" from="left0A0.250.00" to="A0right0" type="passenger"/>
    <trip id="9" depart="4.45" from="right0A0.250.00" to="bottom0A0.250.00" type="passenger"/>
    <trip id="10" depart="5.45" from="bottom0A0" to="left0A0.250.00" type="passenger"/>
    <trip id="11" depart="7.20" from="left0A0.250.00" to="A0top0" type="passenger"/>
    <trip id="12" depart="7.60" from="right0A0" to="A0left0" type="passenger"/>
    <trip id="13" depart="7.75" from="top0A0.250.00" to="top0A0.250.00" type="passenger"/>
    <trip id="14" depart="9.85" from="top0A0" to="top0A0.250.00" type="passenger"/>
    <trip id="15" depart="10.70" from="left0A0" to="A0bottom0" type="passenger"/>
    <trip id="16" depart="10.70" from="left0A0.250.00" to="right0A0.250.00" type="passenger"/>
    <trip id="17" depart="10.75" from="top0A0" to="A0top0" type="passenger"/>
    <trip id="18" depart="11.60" from="bottom0A0" to="bottom0A0.250.00" type="passenger"/>
    <trip id="19" depart="11.90" from="left0A0" to="left0A0.250.00" type="passenger"/>
    <trip id="20" depart="12.05" from="left0A0.250.00" to="top0A0.250.00" type="passenger"/>
    <trip id="21" depart="12.50" from="top0A0.250.00" to="A0bottom0" type="passenger"/>
    <trip id="22" depart="13.60" from="top0A0" to="A0right0" type="passenger"/>
    <trip id="23" depart="14.05" from="left0A0" to="top0A0.250.00" type="passenger"/>
    <trip id="24" depart="14.05" from="left0A0" to="A0left0" type="passenger"/>
    <trip id="25" depart="14.05" from="bottom0A0.250.00" to="A0bottom0" type="passenger"/>
    <trip id="26" depart="14.15" from="top0A0" to="right0A0.250.00" type="passenger"/>
    <trip id="27" depart="14.30" from="top0A0" to="left0A0.250.00" type="passenger"/>
    <trip id="28" depart="14.40" from="left0A0" to="top0A0.250.00" type="passenger"/>
    <trip id="29" depart="14.80" from="bottom0A0.250.00" to="A0left0" type="passenger"/>
    <trip id="30" depart="14.90" from="right0A0" to="A0bottom0" type="passenger"/>
    <trip id="31" depart="16.60" from="left0A0" to="left0A0.250.00" type="passenger"/>
    <trip id="32" depart="17.40" from="left0A0" to="top0A0.250.00" type="passenger"/>
    <trip id="33" depart="17.50" from="left0A0" to="left0A0.250.00" type="passenger"/>
    <trip id="34" depart="17.70" from="top0A0" to="A0right0" type="passenger"/>
    <trip id="35" depart="17.85" from="right0A0" to="left0A0.250.00" type="passenger"/>
    <trip id="36" depart="18.80" from="top0A0" to="A0bottom0" type="passenger"/>
    <trip id="37" depart="19.60" from="right0A0.250.00" to="left0A0.250.00" type="passenger"/>
    <trip id="38" depart="19.80" from="left0A0.250.00" to="top0A0.250.00" type="passenger"/>
    <trip id="39" depart="20.25" from="left0A0" to="A0bottom0" type="passenger"/>
    <trip id="40" depart="20.90" from="left0A0.250.00" to="A0right0" type="passenger"/>
    <trip id="41" depart="21.25" from="top0A0.250.00" to="A0left0" type="passenger"/>
    <trip id="42" depart="21.35" from="right0A0" to="left0A0.250.00" type="passenger"/>
    <trip id="43" depart="22.25" from="left0A0" to="A0bottom0" type="passenger"/>
    <trip id="44" depart="23.40" from="bottom0A0" to="left0A0.250.00" type="passenger"/>
    <trip id="45" depart="24.15" from="bottom0A0.250.00" to="left0A0.250.00" type="passenger"/>
    <trip id="46" depart="24.70" from="top0A0.250.00" to="A0top0" type="passenger"/>
    <trip id="47" depart="24.85" from="bottom0A0" to="left0A0.250.00" type="passenger"/>
    <trip id="48" depart="25.10" from="top0A0.250.00" to="bottom0A0.250.00" type="passenger"/>
    <trip id="49" depart="25.60" from="top0A0.250.00" to="A0top0" type="passenger"/>
    <trip id="50" depart="26.40" from="right0A0" to="bottom0A0.250.00" type="passenger"/>
    <trip id="51" depart="26.55" from="left0A0.250.00" to="bottom0A0.250.00" type="passenger"/>
    <trip id="52" depart="27.10" from="right0A0" to="A0left0" type="passenger"/>
    <trip id="53" depart="28.10" from="bottom0A0.250.00" to="A0bottom0" type="passenger"/>
    <trip id="54" depart="28.25" from="left0A0" to="top0A0.250.00" type="passenger"/>
    <trip id="55" depart="28.65" from="top0A0.250.00" to="A0right0" type="passenger"/>
    <trip id="56" depart="28.75" from="right0A0.250.00" to="left0A0.250.00" type="passenger"/>
    <trip id="57" depart="29.75" from="top0A0.250.00" to="A0top0" type="passenger"/>
    <trip id="58" depart="29.80" from="right0A0" to="A0left0" type="passenger"/>
    <trip id="59" depart="30.15" from="right0A0.250.00" to="right0A0.250.00" type="passenger"/>
    <trip id="60" depart="31.50" from="right0A0" to="A0top0" type="passenger"/>
    <trip id="61" depart="31.80" from="left0A0.250.00" to="top0A0.250.00" type="passenger"/>
    <trip id="62" depart="32.75" from="bottom0A0" to="A0top0" type="passenger"/>
    <trip id="63" depart="32.75" from="bottom0A0" to="A0top0" type="passenger"/>
    <trip id="64" depart="32.95" from="top0A0" to="A0bottom0" type="passenger"/>
    <trip id="65" depart="34.00" from="right0A0.250.00" to="left0A0.250.00" type="passenger"/>
    <trip id="66" depart="34.60" from="right0A0.250.00" to="A0left0" type="passenger"/>
    <trip id="67" depart="34.75" from="left0A0.250.00" to="A0left0" type="passenger"/>
    <trip id="68" depart="36.40" from="left0A0.250.00" to="top0A0.250.00" type="passenger"/>
    <trip id="69" depart="36.75" from="left0A0" to="A0left0" type="passenger"/>
    <trip id="70" depart="37.20" from="left0A0" to="A0left0" type="passenger"/>
    <trip id="71" depart="38.70" from="bottom0A0" to="bottom0A0.250.00" type="passenger"/>
    <trip id="72" depart="39.80" from="top0A0.250.00" to="right0A0.250.00" type="passenger"/>
    <trip id="73" depart="40.50" from="top0A0.250.00" to="A0left0" type="passenger"/>
    <trip id="74" depart="40.90" from="top0A0.250.00" to="A0right0" type="passenger"/>
    <trip id="75" depart="41.00" from="left0A0.250.00" to="A0left0" type="passenger"/>
    <trip id="76" depart="41.05" from="left0A0" to="top0A0.250.00" type="passenger"/>
    <trip id="77" depart="41.25" from="bottom0A0.250.00" to="A0right0" type="passenger"/>
    <trip id="78" depart="41.70" from="bottom0A0.250.00" to="A0right0" type="passenger"/>
    <trip id="79" depart="41.90" from="top0A0" to="A0bottom0" type="passenger"/>
    <trip id="80" depart="44.70" from="right0A0" to="A0right0" type="passenger"/>
    <trip id="81" depart="44.85" from="top0A0.250.00" to="A0right0" type="passenger"/>
    <trip id="82" depart="45.25" from="top0A0" to="right0A0.250.00" type="passenger"/>
    <trip id="83" depart="45.35" from="left0A0" to="A0right0" type="passenger"/>
    <trip id="84" depart="45.75" from="left0A0.250.00" to="A0top0" type="passenger"/>
    <trip id="85" depart="45.95" from="bottom0A0.250.00" to="A0top0" type="passenger"/>
    <trip id="86" depart="46.10" from="left0A0" to="bottom0A0.250.00" type="passenger"/>
    <trip id="87" depart="46.20" from="top0A0" to="left0A0.250.00" type="passenger"/>
    <trip id="88" depart="46.30" from="top0A0.250.00" to="bottom0A0.250.00" type="passenger"/>
    <trip id="89" depart="46.60" from="top0A0" to="A0top0" type="passenger"/>
    <trip id="90" depart="47.00" from="left0A0" to="A0left0" type="passenger"/>
    <trip id="91" depart="47.30" from="bottom0A0" to="bottom0A0.250.00" type="passenger"/>
    <trip id="92" depart="48.20" from="bottom0A0" to="right0A0.250.00" type="passenger"/>
    <trip id="93" depart="48.70" from="left0A0" to="A0top0" type="passenger"/>
    <trip id="94" depart="49.20" from="top0A0.250.00" to="A0top0" type="passenger"/>
    <trip id="95" depart="49.40" from="top0A0.250.00" to="A0right0" type="passenger"/>
    <trip id="96" depart="49.40" from="top0A0" to="A0top0" type="passenger"/>
    <trip id="97" depart="49.95" from="bottom0A0.250.00" to="A0top0" type="passenger"/>
    <trip id="98" depart="50.45" from="left0A0.250.00" to="right0A0.250.00" type="passenger"/>
    <trip id="99" depart="50.55" from="bottom0A0" to="top0A0.250.00" type="passenger"/>
    <trip id="100" depart="52.55" from="bottom0A0.250.00" to="A0bottom0" type="passenger"/>
    <trip id="101" depart="52.95" from="top0A0.250.00" to="right0A0.250.00" type="passenger"/>
    <trip id="102" depart="53.05" from="top0A0.250.00" to="A0right0" type="passenger"/>
    <trip id="103" depart="53.55" from="bottom0A0.250.00" to="right0A0.250.00" type="passenger"/>
    <trip id="104" depart="53.75" from="left0A0" to="top0A0.250.00" type="passenger"/>
    <trip id="105" depart="53.80" from="left0A0" to="A0right0" type="passenger"/>
    <trip id="106" depart="53.85" from="bottom0A0.250.00" to="right0A0.250.00" type="passenger"/>
    <trip id="107" depart="54.55" from="top0A0" to="right0A0.250.00" type="passenger"/>
    <trip id="108" depart="54.70" from="bottom0A0.250.00" to="bottom0A0.250.00" type="passenger"/>
    <trip id="109" depart="55.25" from="left0A0.250.00" to="right0A0.250.00" type="passenger"/>
    <trip id="110" depart="55.35" from="bottom0A0" to="bottom0A0.250.00" type="passenger"/>
    <trip id="111" depart="55.65" from="left0A0" to="right0A0.250.00" type="passenger"/>
    <trip id="112" depart="56.00" from="top0A0.250.00" to="left0A0.250.00" type="passenger"/>
    <trip id="113" depart="56.40" from="left0A0.250.00" to="A0bottom0" type="passenger"/>
    <trip id="114" depart="57.25" from="top0A0" to="A0top0" type="passenger"/>
    <trip id="115" depart="57.40" from="left0A0" to="A0top0" type="passenger"/>
    <trip id="116" depart="57.70" from="right0A0" to="top0A0.250.00" type="passenger"/>
    <trip id="117" depart="58.35" from="right0A0" to="A0bottom0" type="passenger"/>
    <trip id="118" depart="58.85" from="left0A0.250.00" to="bottom0A0.250.00" type="passenger"/>
    <trip id="119" depart="59.55" from="left0A0" to="A0top0" type="passenger"/>
    <trip id="120" depart="60.05" from="right0A0.250.00" to="A0top0" type="passenger"/>
    <trip id="121" depart="60.55" from="right0A0.250.00" to="top0A0.250.00" type="passenger"/>
    <trip id="122" depart="61.10" from="top0A0.250.00" to="bottom0A0.250.00" type="passenger"/>
    <trip id="123" depart="62.60" from="right0A0.250.00" to="right0A0.250.00" type="passenger"/>
    <trip id="124" depart="62.65" from="left0A0.250.00" to="A0left0" type="passenger"/>
    <trip id="125" depart="62.70" from="right0A0" to="top0A0.250.00" type="passenger"/>
    <trip id="126" depart="63.60" from="right0A0.250.00" to="bottom0A0.250.00" type="passenger"/>
    <trip id="127" depart="63.80" from="right0A0.250.00" to="top0A0.250.00" type="passenger"/>
    <trip id="128" depart="64.10" from="top0A0" to="A0right0" type="passenger"/>
    <trip id="129" depart="64.15" from="top0A0" to="top0A0.250.00" type="passenger"/>
    <trip id="130" depart="64.35" from="left0A0" to="left0A0.250.00" type="passenger"/>
    <trip id="131" depart="64.70" from="top0A0.250.00" to="right0A0.250.00" type="passenger"/>
    <trip id="132" depart="64.90" from="bottom0A0.250.00" to="A0left0" type="passenger"/>
    <trip id="133" depart="66.00" from="left0A0.250.00" to="A0right0" type="passenger"/>
    <trip id="134" depart="67.40" from="top0A0.250.00" to="bottom0A0.250.00" type="passenger"/>
    <trip id="135" depart="67.45" from="bottom0A0.250.00" to="A0left0" type="passenger"/>
    <trip id="136" depart="68.20" from="top0A0" to="top0A0.250.00" type="passenger"/>
    <trip id="137" depart="69.55" from="top0A0.250.00" to="A0right0" type="passenger"/>
    <trip id="138" depart="70.10" from="left0A0" to="right0A0.250.00" type="passenger"/>
    <trip id="139" depart="70.80" from="top0A0" to="left0A0.250.00" type="passenger"/>
    <trip id="140" depart="71.00" from="right0A0" to="A0right0" type="passenger"/>
    <trip id="141" depart="71.05" from="top0A0.250.00" to="A0bottom0" type="passenger"/>
    <trip id="142" depart="71.35" from="left0A0.250.00" to="left0A0.250.00" type="passenger"/>
    <trip id="143" depart="71.35" from="bottom0A0.250.00" to="A0top0" type="passenger"/>
    <trip id="144" depart="71.80" from="bottom0A0" to="left0A0.250.00" type="passenger"/>
    <trip id="145" depart="72.05" from="left0A0.250.00" to="A0left0" type="passenger"/>
    <trip id="146" depart="72.35" from="right0A0" to="bottom0A0.250.00" type="passenger"/>
    <trip id="147" depart="73.60" from="left0A0.250.00" to="left0A0.250.00" type="passenger"/>
    <trip id="148" depart="74.45" from="left0A0" to="A0bottom0" type="passenger"/>
    <trip id="149" depart="74.85" from="bottom0A0.250.00" to="A0top0" type="passenger"/>
    <trip id="150" depart="74.85" from="right0A0" to="A0left0" type="passenger"/>
    <trip id="151" depart="74.90" from="right0A0.250.00" to="A0right0" type="passenger"/>
    <trip id="152" depart="75.05" from="left0A0.250.00" to="left0A0.250.00" type="passenger"/>
    <trip id="153" depart="75.25" from="right0A0.250.00" to="A0right0" type="passenger"/>
    <trip id="154" depart="75.40" from="top0A0" to="A0top0" type="passenger"/>
    <trip id="155" depart="76.75" from="bottom0A0" to="A0top0" type="passenger"/>
    <trip id="156" depart="76.95" from="left0A0" to="A0left0" type="passenger"/>
    <trip id="157" depart="77.30" from="top0A0" to="A0top0" type="passenger"/>
    <trip id="158" depart="77.55" from="right0A0" to="A0bottom0" type="passenger"/>
    <trip id="159" depart="77.55" from="right0A0.250.00" to="left0A0.250.00" type="passenger"/>
    <trip id="160" depart="77.75" from="left0A0.250.00" to="bottom0A0.250.00" type="passenger"/>
    <trip id="161" depart="79.20" from="right0A0.250.00" to="A0bottom0" type="passenger"/>
    <trip id="162" depart="81.10" from="top0A0" to="bottom0A0.250.00" type="passenger"/>
    <trip id="163" depart="81.25" from="bottom0A0" to="A0top0" type="passenger"/>
    <trip id="164" depart="81.50" from="top0A0.250.00" to="A0left0" type="passenger"/>
    <trip id="165" depart="81.80" from="right0A0.250.00" to="A0left0" type="passenger"/>
    <trip id="166" depart="81.90" from="right0A0.250.00" to="top0A0.250.00" type="passenger"/>
    <trip id="167" depart="82.20" from="right0A0" to="left0A0.250.00" type="passenger"/>
    <trip id="168" depart="83.25" from="bottom0A0" to="A0top0" type="passenger"/>
    <trip id="169" depart="84.30" from="left0A0.250.00" to="A0right0" type="passenger"/>
    <trip id="170" depart="84.70" from="left0A0.250.00" to="A0bottom0" type="passenger"/>
    <trip id="171" depart="85.65" from="left0A0.250.00" to="A0right0" type="passenger"/>
    <trip id="172" depart="86.55" from="top0A0.250.00" to="left0A0.250.00" type="passenger"/>
    <trip id="173" depart="88.05" from="left0A0" to="left0A0.250.00" type="passenger"/>
    <trip id="174" depart="88.60" from="right0A0.250.00" to="right0A0.250.00" type="passenger"/>
    <trip id="175" depart="89.30" from="top0A0.250.00" to="left0A0.250.00" type="passenger"/>
    <trip id="176" depart="89.40" from="right0A0" to="A0right0" type="passenger"/>
    <trip id="177" depart="89.50" from="bottom0A0" to="A0bottom0" type="passenger"/>
    <trip id="178" depart="89.80" from="top0A0" to="top0A0.250.00" type="passenger"/>
    <trip id="179" depart="90.00" from="right0A0.250.00" to="right0A0.250.00" type="passenger"/>
    <trip id="180" depart="90.10" from="bottom0A0.250.00" to="left0A0.250.00" type="passenger"/>
    <trip id="181" depart="90.40" from="left0A0.250.00" to="right0A0.250.00" type="passenger"/>
    <trip id="182" depart="90.40" from="left0A0.250.00" to="bottom0A0.250.00" type="passenger"/>
    <trip id="183" depart="90.70" from="left0A0.250.00" to="A0left0" type="passenger"/>
    <trip id="184" depart="91.30" from="top0A0.250.00" to="top0A0.250.00" type="passenger"/>
    <trip id="185" depart="91.45" from="right0A0.250.00" to="A0bottom0" type="passenger"/>
    <trip id="186" depart="91.95" from="left0A0.250.00" to="A0right0" type="passenger"/>
    <trip id="187" depart="92.15" from="left0A0.250.00" to="A0bottom0" type="passenger"/>
    <trip id="188" depart="92.45" from="right0A0" to="right0A0.250.00" type="passenger"/>
    <trip id="189" depart="92.75" from="top0A0.250.00" to="A0top0" type="passenger"/>
    <trip id="190" depart="93.05" from="top0A0" to="A0left0" type="passenger"/>
    <trip id="191" depart="93.25" from="right0A0.250.00" to="left0A0.250.00" type="passenger"/>
    <trip id="192" depart="93.35" from="left0A0" to="A0top0" type="passenger"/>
    <trip id="193" depart="93.65" from="top0A0" to="A0bottom0" type="passenger"/>
    <trip id="194" depart="93.75" from="left0A0.250.00" to="bottom0A0.250.00" type="passenger"/>
    <trip id="195" depart="94.20" from="top0A0" to="A0top0" type="passenger"/>
    <trip id="196" depart="94.95" from="bottom0A0.250.00" to="bottom0A0.250.00" type="passenger"/>
    <trip id="197" depart="95.25" from="top0A0.250.00" to="right0A0.250.00" type="passenger"/>
    <trip id="198" depart="95.55" from="left0A0" to="A0left0" type="passenger"/>
    <trip id="199" depart="96.10" from="right0A0.250.00" to="bottom0A0.250.00" type="passenger"/>
    <trip id="200" depart="96.25" from="top0A0" to="A0right0" type="passenger"/>
    <trip id="201" depart="97.00" from="top0A0.250.00" to="left0A0.250.00" type="passenger"/>
    <trip id="202" depart="97.30" from="right0A0.250.00" to="top0A0.250.00" type="passenger"/>
    <trip id="203" depart="98.20" from="left0A0.250.00" to="bottom0A0.250.00" type="passenger"/>
    <trip id="204" depart="98.45" from="left0A0" to="A0left0" type="passenger"/>
    <trip id="205" depart="99.50" from="bottom0A0.250.00" to="A0top0" type="passenger"/>
    <trip id="206" depart="99.65" from="bottom0A0" to="A0left0" type="passenger"/>
    <trip id="207" depart="99.90" from="bottom0A0.250.00" to="right0A0.250.00" type="passenger"/>
    <trip id="208" depart="100.35" from="right0A0" to="right0A0.250.00" type="passenger"/>
    <trip id="209" depart="101.05" from="top0A0" to="bottom0A0.250.00" type="passenger"/>
    <trip id="210" depart="101.40" from="left0A0" to="left0A0.250.00" type="passenger"/>
    <trip id="211" depart="102.75" from="bottom0A0" to="A0bottom0" type="passenger"/>
    <trip id="212" depart="104.00" from="top0A0.250.00" to="left0A0.250.00" type="passenger"/>
    <trip id="213" depart="104.10" from="bottom0A0" to="A0left0" type="passenger"/>
    <trip id="214" depart="104.20" from="right0A0" to="top0A0.250.00" type="passenger"/>
    <trip id="215" depart="104.40" from="right0A0" to="A0right0" type="passenger"/>
    <trip id="216" depart="104.45" from="right0A0.250.00" to="top0A0.250.00" type="passenger"/>
    <trip id="217" depart="106.75" from="bottom0A0.250.00" to="A0top0" type="passenger"/>
    <trip id="218" depart="106.75" from="top0A0" to="A0right0" type="passenger"/>
    <trip id="219" depart="106.85" from="bottom0A0" to="A0bottom0" type="passenger"/>
    <trip id="220" depart="108.05" from="bottom0A0.250.00" to="left0A0.250.00" type="passenger"/>
    <trip id="221" depart="109.35" from="right0A0.250.00" to="A0bottom0" type="passenger"/>
    <trip id="222" depart="110.65" from="bottom0A0" to="A0right0" type="passenger"/>
    <trip id="223" depart="110.95" from="bottom0A0" to="A0top0" type="passenger"/>
    <trip id="224" depart="111.00" from="right0A0.250.00" to="bottom0A0.250.00" type="passenger"/>
    <trip id="225" depart="111.30" from="left0A0" to="A0top0" type="passenger"/>
    <trip id="226" depart="112.15" from="bottom0A0.250.00" to="A0left0" type="passenger"/>
    <trip id="227" depart="112.25" from="bottom0A0" to="A0top0" type="passenger"/>
    <trip id="228" depart="113.85" from="bottom0A0" to="A0bottom0" type="passenger"/>
    <trip id="229" depart="114.00" from="left0A0" to="A0right0" type="passenger"/>
    <trip id="230" depart="115.05" from="left0A0" to="bottom0A0.250.00" type="passenger"/>
    <trip id="231" depart="115.40" from="top0A0.250.00" to="A0top0" type="passenger"/>
    <trip id="232" depart="117.00" from="top0A0" to="A0right0" type="passenger"/>
    <trip id="233" depart="117.05" from="top0A0" to="A0top0" type="passenger"/>
    <trip id="234" depart="117.80" from="bottom0A0" to="top0A0.250.00" type="passenger"/>
    <trip id="235" depart="118.00" from="left0A0" to="right0A0.250.00" type="passenger"/>
    <trip id="236" depart="118.30" from="bottom0A0.250.00" to="A0right0" type="passenger"/>
    <trip id="237" depart="118.95" from="top0A0" to="A0right0" type="passenger"/>
    <trip id="238" depart="119.95" from="right0A0.250.00" to="top0A0.250.00" type="passenger"/>
    <trip id="239" depart="120.00" from="right0A0" to="bottom0A0.250.00" type="passenger"/>
    <trip id="240" depart="120.90" from="top0A0.250.00" to="bottom0A0.250.00" type="passenger"/>
    <trip id="241" depart="121.15" from="left0A0" to="A0bottom0" type="passenger"/>
    <trip id="242" depart="121.15" from="bottom0A0" to="left0A0.250.00" type="passenger"/>
    <trip id="243" depart="121.60" from="right0A0.250.00" to="right0A0.250.00" type="passenger"/>
    <trip id="244" depart="122.55" from="left0A0.250.00" to="bottom0A0.250.00" type="passenger"/>
    <trip id="245" depart="122.95" from="top0A0" to="left0A0.250.00" type="passenger"/>
    <trip id="246" depart="124.65" from="bottom0A0" to="A0top0" type="passenger"/>
    <trip id="247" depart="125.80" from="right0A0.250.00" to="A0bottom0" type="passenger"/>
    <trip id="248" depart="126.25" from="bottom0A0" to="bottom0A0.250.00" type="passenger"/>
    <trip id="249" depart="126.65" from="bottom0A0" to="A0right0" type="passenger"/>
    <trip id="250" depart="126.95" from="top0A0.250.00" to="left0A0.250.00" type="passenger"/>
    <trip id="251" depart="126.95" from="right0A0.250.00" to="A0bottom0" type="passenger"/>
    <trip id="252" depart="127.00" from="left0A0.250.00" to="bottom0A0.250.00" type="passenger"/>
    <trip id="253" depart="127.40" from="bottom0A0.250.00" to="A0right0" type="passenger"/>
    <trip id="254" depart="127.40" from="top0A0.250.00" to="top0A0.250.00" type="passenger"/>
    <trip id="255" depart="127.80" from="right0A0.250.00" to="A0bottom0" type="passenger"/>
    <trip id="256" depart="127.80" from="top0A0" to="right0A0.250.00" type="passenger"/>
    <trip id="257" depart="128.70" from="top0A0" to="bottom0A0.250.00" type="passenger"/>
    <trip id="258" depart="129.40" from="left0A0.250.00" to="left0A0.250.00" type="passenger"/>
    <trip id="259" depart="130.35" from="top0A0" to="A0right0" type="passenger"/>
    <trip id="260" depart="131.25" from="bottom0A0" to="A0top0" type="passenger"/>
    <trip id="261" depart="131.70" from="left0A0" to="bottom0A0.250.00" type="passenger"/>
    <trip id="262" depart="132.35" from="bottom0A0.250.00" to="top0A0.250.00" type="passenger"/>
    <trip id="263" depart="134.00" from="right0A0.250.00" to="top0A0.250.00" type="passenger"/>
    <trip id="264" depart="134.15" from="right0A0.250.00" to="A0bottom0" type="passenger"/>
    <trip id="265" depart="134.25" from="top0A0" to="left0A0.250.00" type="passenger"/>
    <trip id="266" depart="134.70" from="left0A0.250.00" to="A0bottom0" type="passenger"/>
    <trip id="267" depart="134.80" from="top0A0" to="A0top0" type="passenger"/>
    <trip id="268" depart="135.05" from="right0A0.250.00" to="left0A0.250.00" type="passenger"/>
    <trip id="269" depart="136.25" from="top0A0.250.00" to="right0A0.250.00" type="passenger"/>
    <trip id="270" depart="136.70" from="right0A0.250.00" to="A0bottom0" type="passenger"/>
    <trip id="271" depart="136.85" from="left0A0.250.00" to="A0right0" type="passenger"/>
    <trip id="272" depart="137.55" from="left0A0" to="top0A0.250.00" type="passenger"/>
    <trip id="273" depart="138.00" from="top0A0" to="top0A0.250.00" type="passenger"/>
    <trip id="274" depart="138.00" from="left0A0.250.00" to="top0A0.250.00" type="passenger"/>
    <trip id="275" depart="138.15" from="right0A0.250.00" to="A0right0" type="passenger"/>
    <trip id="276" depart="138.40" from="top0A0" to="A0top0" type="passenger"/>
    <trip id="277" depart="138.65" from="bottom0A0.250.00" to="right0A0.250.00" type="passenger"/>
    <trip id="278" depart="139.15" from="bottom0A0.250.00" to="A0bottom0" type="passenger"/>
    <trip id="279" depart="139.60" from="bottom0A0" to="top0A0.250.00" type="passenger"/>
    <trip id="280" depart="139.90" from="top0A0.250.00" to="A0right0" type="passenger"/>
    <trip id="281" depart="140.40" from="left0A0.250.00" to="right0A0.250.00" type="passenger"/>
    <trip id="282" depart="140.60" from="bottom0A0" to="A0right0" type="passenger"/>
    <trip id="283" depart="140.60" from="right0A0.250.00" to="left0A0.250.00" type="passenger"/>
    <trip id="284" depart="141.10" from="bottom0A0.250.00" to="bottom0A0.250.00" type="passenger"/>
    <trip id="285" depart="141.20" from="left0A0.250.00" to="top0A0.250.00" type="passenger"/>
    <trip id="286" depart="141.70" from="right0A0" to="A0top0" type="passenger"/>
    <trip id="287" depart="142.50" from="top0A0.250.00" to="right0A0.250.00" type="passenger"/>
    <trip id="288" depart="143.20" from="top0A0.250.00" to="bottom0A0.250.00" type="passenger"/>
    <trip id="289" depart="143.30" from="left0A0" to="A0right0" type="passenger"/>
    <trip id="290" depart="143.55" from="right0A0.250.00" to="A0top0" type="passenger"/>
    <trip id="291" depart="143.60" from="left0A0" to="top0A0.250.00" type="passenger"/>
    <trip id="292" depart="143.85" from="left0A0" to="top0A0.250.00" type="passenger"/>
    <trip id="293" depart="144.50" from="top0A0" to="left0A0.250.00" type="passenger"/>
    <trip id="294" depart="144.50" from="right0A0.250.00" to="A0right0" type="passenger"/>
    <trip id="295" depart="145.10" from="bottom0A0.250.00" to="A0top0" type="passenger"/>
    <trip id="296" depart="146.20" from="top0A0" to="A0right0" type="passenger"/>
    <trip id="297" depart="146.60" from="bottom0A0" to="A0left0" type="passenger"/>
    <trip id="298" depart="146.75" from="bottom0A0" to="left0A0.250.00" type="passenger"/>
    <trip id="299" depart="147.20" from="top0A0.250.00" to="A0left0" type="passenger"/>
    <trip id="300" depart="147.55" from="right0A0" to="bottom0A0.250.00" type="passenger"/>
    <trip id="301" depart="147.70" from="left0A0" to="A0right0" type="passenger"/>
    <trip id="302" depart="148.05" from="bottom0A0.250.00" to="right0A0.250.00" type="passenger"/>
    <trip id="303" depart="148.15" from="right0A0" to="A0right0" type="passenger"/>
    <trip id="304" depart="149.10" from="bottom0A0.250.00" to="bottom0A0.250.00" type="passenger"/>
    <trip id="305" depart="149.95" from="right0A0" to="left0A0.250.00" type="passenger"/>
    <trip id="306" depart="150.05" from="top0A0.250.00" to="A0right0" type="passenger"/>
    <trip id="307" depart="150.45" from="top0A0" to="A0top0" type="passenger"/>
    <trip id="308" depart="150.60" from="bottom0A0" to="left0A0.250.00" type="passenger"/>
    <trip id="309" depart="150.95" from="left0A0.250.00" to="right0A0.250.00" type="passenger"/>
    <trip id="310" depart="150.95" from="right0A0" to="A0top0" type="passenger"/>
    <trip id="311" depart="151.20" from="right0A0" to="A0left0" type="passenger"/>
    <trip id="312" depart="151.40" from="bottom0A0" to="left0A0.250.00" type="passenger"/>
    <trip id="313" depart="151.45" from="bottom0A0" to="left0A0.250.00" type="passenger"/>
    <trip id="314" depart="152.25" from="left0A0" to="A0left0" type="passenger"/>
    <trip id="315" depart="153.00" from="right0A0" to="A0left0" type="passenger"/>
    <trip id="316" depart="153.20" from="top0A0.250.00" to="bottom0A0.250.00" type="passenger"/>
    <trip id="317" depart="153.80" from="right0A0" to="right0A0.250.00" type="passenger"/>
    <trip id="318" depart="155.35" from="left0A0" to="A0bottom0" type="passenger"/>
    <trip id="319" depart="155.75" from="bottom0A0" to="A0bottom0" type="passenger"/>
    <trip id="320" depart="155.80" from="right0A0.250.00" to="A0right0" type="passenger"/>
    <trip id="321" depart="158.55" from="bottom0A0" to="bottom0A0.250.00" type="passenger"/>
    <trip id="322" depart="159.30" from="top0A0" to="A0right0" type="passenger"/>
    <trip id="323" depart="159.70" from="top0A0.250.00" to="A0bottom0" type="passenger"/>
    <trip id="324" depart="160.10" from="right0A0.250.00" to="bottom0A0.250.00" type="passenger"/>
    <trip id="325" depart="161.30" from="left0A0" to="A0bottom0" type="passenger"/>
    <trip id="326" depart="161.55" from="right0A0.250.00" to="right0A0.250.00" type="passenger"/>