<?xml version="1.0" encoding="UTF-8"?>

<!-- generated on 2023-02-12 18:46:56.204081 by randomTrips.py UNKNOWN
<configuration>
    <begin value="0"/>
    <end value="900"/>
    <insertion-rate value="12500.0"/>
    <net-file value="/home/franky3er/Documents/code/HieraGLight/scenarios/grid/5x5-150m/train/61-scenario/network.net.xml"/>
    <random value="True"/>
    <random-depart value="True"/>
    <route-file value="/home/franky3er/Documents/code/HieraGLight/scenarios/grid/5x5-150m/train/61-scenario/routes.rou.xml"/>
    <seed value="61"/>
    <output-trip-file value="/home/franky3er/Documents/code/HieraGLight/scenarios/grid/5x5-150m/train/61-scenario/trips.trips.xml"/>
    <vehicle-class value="passenger"/>
</configuration>
-->

<routes xmlns:xsi="http://www.w3.org/2001/XMLSchema-instance" xsi:noNamespaceSchemaLocation="http://sumo.dlr.de/xsd/routes_file.xsd">
    <vType id="passenger" vClass="passenger"/>
    <trip id="0" depart="0.10" from="B3C3" to="E2right2" type="passenger"/>
    <trip id="1" depart="0.42" from="D1D0" to="A1left1" type="passenger"/>
    <trip id="2" depart="0.74" from="A1B1.80.00" to="D4C4.80.00" type="passenger"/>
    <trip id="3" depart="0.90" from="left3A3" to="bottom3D0.80.00" type="passenger"/>
    <trip id="4" depart="1.19" from="E2E1" to="C0D0" type="passenger"/>
    <trip id="5" depart="1.32" from="C1D1.80.00" to="E4E3" type="passenger"/>
    <trip id="6" depart="1.62" from="C1C0" to="E4D4" type="passenger"/>
    <trip id="7" depart="2.07" from="E0E1" to="D2C2" type="passenger"/>
    <trip id="8" depart="2.27" from="D2D1" to="B3A3.80.00" type="passenger"/>
    <trip id="9" depart="3.45" from="top0A4" to="B1A1" type="passenger"/>
    <trip id="10" depart="4.25" from="D0E0" to="B3B2" type="passenger"/>
    <trip id="11" depart="4.41" from="E2E3.80.00" to="top0A4.80.00" type="passenger"/>
    <trip id="12" depart="5.50" from="E0D0" to="A3B3.80.00" type="passenger"/>
    <trip id="13" depart="6.25" from="A2B2" to="D2C2.80.00" type="passenger"/>
    <trip id="14" depart="6.82" from="E1D1.80.00" to="C0D0.80.00" type="passenger"/>
    <trip id="15" depart="7.39" from="A3B3" to="C0B0" type="passenger"/>
    <trip id="16" depart="7.46" from="B1B2" to="D3D4.80.00" type="passenger"/>
    <trip id="17" depart="7.75" from="D2D1.80.00" to="C4top2" type="passenger"/>
    <trip id="18" depart="7.78" from="bottom1B0" to="A4top0" type="passenger"/>
    <trip id="19" depart="7.82" from="bottom2C0.80.00" to="bottom4E0.80.00" type="passenger"/>
    <trip id="20" depart="7.86" from="B4B3" to="B4A4.80.00" type="passenger"/>
    <trip id="21" depart="8.06" from="B2C2.80.00" to="B1B0" type="passenger"/>
    <trip id="22" depart="8.10" from="left3A3" to="C4C3" type="passenger"/>
    <trip id="23" depart="8.66" from="left4A4" to="B3C3" type="passenger"/>
    <trip id="24" depart="9.35" from="D0E0.80.00" to="C3C2.80.00" type="passenger"/>
    <trip id="25" depart="9.69" from="B3C3.80.00" to="D0E0.80.00" type="passenger"/>
    <trip id="26" depart="9.82" from="bottom0A0.80.00" to="A3A4" type="passenger"/>
    <trip id="27" depart="9.82" from="E1D1" to="E2E1" type="passenger"/>
    <trip id="28" depart="10.08" from="A0B0" to="E4D4" type="passenger"/>
    <trip id="29" depart="10.37" from="left2A2.80.00" to="E1D1.80.00" type="passenger"/>
    <trip id="30" depart="10.71" from="E4E3" to="D2D3.80.00" type="passenger"/>
    <trip id="31" depart="10.95" from="C1B1.80.00" to="B4B3.80.00" type="passenger"/>
    <trip id="32" depart="11.10" from="B4B3.80.00" to="C3B3.80.00" type="passenger"/>
    <trip id="33" depart="11.30" from="B1B2.80.00" to="A2A3.80.00" type="passenger"/>
    <trip id="34" depart="11.41" from="D1C1" to="D3E3.80.00" type="passenger"/>
    <trip id="35" depart="12.36" from="E3D3" to="E0right0" type="passenger"/>
    <trip id="36" depart="12.66" from="C4B4.80.00" to="A3B3.80.00" type="passenger"/>
    <trip id="37" depart="12.75" from="E1E2" to="C1D1" type="passenger"/>
    <trip id="38" depart="13.23" from="C0C1.80.00" to="E1D1.80.00" type="passenger"/>
    <trip id="39" depart="13.38" from="A1A2.80.00" to="D3D4" type="passenger"/>
    <trip id="40" depart="13.94" from="C2D2" to="A3A2" type="passenger"/>
    <trip id="41" depart="13.99" from="A1A2" to="A2B2" type="passenger"/>
    <trip id="42" depart="14.08" from="B3B2.80.00" to="A0B0.80.00" type="passenger"/>
    <trip id="43" depart="15.14" from="bottom1B0.80.00" to="left0A0.80.00" type="passenger"/>
    <trip id="44" depart="15.14" from="A4B4.80.00" to="B4C4.80.00" type="passenger"/>
    <trip id="45" depart="15.34" from="A4A3" to="B1C1.80.00" type="passenger"/>
    <trip id="46" depart="15.41" from="E4D4" to="D2E2.80.00" type="passenger"/>
    <trip id="47" depart="15.71" from="top2C4" to="B4A4.80.00" type="passenger"/>
    <trip id="48" depart="16.22" from="C2B2" to="C1C0" type="passenger"/>
    <trip id="49" depart="16.88" from="left4A4" to="D0E0.80.00" type="passenger"/>
    <trip id="50" depart="16.90" from="E0D0" to="D1D0.80.00" type="passenger"/>
    <trip id="51" depart="16.95" from="E1E0.80.00" to="C1C0.80.00" type="passenger"/>
    <trip id="52" depart="17.07" from="bottom1B0.80.00" to="E3E2" type="passenger"/>
    <trip id="53" depart="17.34" from="B3B4" to="B3B2" type="passenger"/>
    <trip id="54" depart="17.48" from="D1C1" to="B1B0.80.00" type="passenger"/>
    <trip id="55" depart="17.62" from="E4D4.80.00" to="B0B1" type="passenger"/>
    <trip id="56" depart="18.34" from="B1A1.80.00" to="B2B1.80.00" type="passenger"/>
    <trip id="57" depart="18.38" from="D0D1" to="A1A0" type="passenger"/>
    <trip id="58" depart="18.64" from="D3D2" to="A0A1.80.00" type="passenger"/>
    <trip id="59" depart="19.06" from="A1A2.80.00" to="A3B3" type="passenger"/>
    <trip id="60" depart="19.20" from="D0D1.80.00" to="D2E2.80.00" type="passenger"/>
    <trip id="61" depart="19.50" from="E2E3.80.00" to="top3D4.80.00" type="passenger"/>
    <trip id="62" depart="19.52" from="bottom3D0.80.00" to="C2B2" type="passenger"/>
    <trip id="63" depart="19.90" from="right3E3" to="B0C0.80.00" type="passenger"/>
    <trip id="64" depart="20.03" from="top1B4" to="E1E2" type="passenger"/>
    <trip id="65" depart="20.62" from="A0B0.80.00" to="E0D0" type="passenger"/>
    <trip id="66" depart="21.07" from="E1D1" to="B0C0.80.00" type="passenger"/>
    <trip id="67" depart="21.20" from="B1B2" to="C4B4" type="passenger"/>
    <trip id="68" depart="21.45" from="left1A1" to="E0D0.80.00" type="passenger"/>
    <trip id="69" depart="21.49" from="left4A4" to="D0C0" type="passenger"/>
    <trip id="70" depart="21.60" from="C1C2" to="A4A3" type="passenger"/>
    <trip id="71" depart="21.83" from="C3C4.80.00" to="B3B4" type="passenger"/>
    <trip id="72" depart="22.30" from="bottom4E0" to="E3E2.80.00" type="passenger"/>
    <trip id="73" depart="22.41" from="B1A1.80.00" to="left3A3.80.00" type="passenger"/>
    <trip id="74" depart="22.46" from="B2B3.80.00" to="bottom1B0.80.00" type="passenger"/>
    <trip id="75" depart="22.81" from="D2D1" to="D1D2.80.00" type="passenger"/>
    <trip id="76" depart="22.95" from="D3D2.80.00" to="A3left3" type="passenger"/>
    <trip id="77" depart="23.01" from="B4B3" to="E2E3" type="passenger"/>
    <trip id="78" depart="23.11" from="left4A4" to="A0left0" type="passenger"/>
    <trip id="79" depart="23.14" from="E2E1.80.00" to="A2A3.80.00" type="passenger"/>
    <trip id="80" depart="23.62" from="A3A4.80.00" to="B4A4.80.00" type="passenger"/>
    <trip id="81" depart="23.66" from="A3A2" to="D3D4.80.00" type="passenger"/>
    <trip id="82" depart="23.83" from="top4E4" to="E2E1" type="passenger"/>
    <trip id="83" depart="24.43" from="top2C4.80.00" to="B0C0" type="passenger"/>
    <trip id="84" depart="24.50" from="bottom0A0.80.00" to="B2C2" type="passenger"/>
    <trip id="85" depart="24.61" from="D0D1" to="B4B3.80.00" type="passenger"/>
    <trip id="86" depart="25.38" from="B0A0" to="top3D4.80.00" type="passenger"/>
    <trip id="87" depart="25.47" from="bottom4E0.80.00" to="D2C2" type="passenger"/>
    <trip id="88" depart="26.88" from="right4E4" to="D3E3" type="passenger"/>
    <trip id="89" depart="27.98" from="D4C4" to="A4B4.80.00" type="passenger"/>
    <trip id="90" depart="28.06" from="top0A4" to="B2B1.80.00" type="passenger"/>
    <trip id="91" depart="28.76" from="E0D0.80.00" to="B1B0.80.00" type="passenger"/>
    <trip id="92" depart="29.35" from="D1C1" to="C3C4" type="passenger"/>
    <trip id="93" depart="30.34" from="D3C3.80.00" to="C1D1.80.00" type="passenger"/>
    <trip id="94" depart="30.35" from="C1D1" to="right0E0.80.00" type="passenger"/>
    <trip id="95" depart="30.42" from="A1B1.80.00" to="D1D2.80.00" type="passenger"/>
    <trip id="96" depart="30.49" from="C3D3.80.00" to="A4B4" type="passenger"/>
    <trip id="97" depart="30.60" from="D0E0" to="B3A3" type="passenger"/>
    <trip id="98" depart="31.33" from="E1D1.80.00" to="D0D1" type="passenger"/>
    <trip id="99" depart="31.62" from="D4E4" to="A2A3.80.00" type="passenger"/>
    <trip id="100" depart="31.78" from="E2D2.80.00" to="A3A4" type="passenger"/>
    <trip id="101" depart="32.08" from="A0B0.80.00" to="right2E2.80.00" type="passenger"/>
    <trip id="102" depart="32.11" from="A2A3" to="E1right1" type="passenger"/>
    <trip id="103" depart="32.44" from="B3B4" to="D4E4" type="passenger"/>
    <trip id="104" depart="32.80" from="E4E3.80.00" to="C2C1.80.00" type="passenger"/>
    <trip id="105" depart="33.06" from="E2D2" to="B1B2.80.00" type="passenger"/>
    <trip id="106" depart="33.08" from="bottom2C0.80.00" to="D0E0.80.00" type="passenger"/>
    <trip id="107" depart="33.14" from="E1D1.80.00" to="right0E0.80.00" type="passenger"/>
    <trip id="108" depart="33.37" from="D2D3" to="C3B3" type="passenger"/>
    <trip id="109" depart="33.66" from="A2A1.80.00" to="A3A4" type="passenger"/>
    <trip id="110" depart="34.43" from="B1A1" to="B4A4" type="passenger"/>
    <trip id="111" depart="34.95" from="D4D3.80.00" to="C2C1.80.00" type="passenger"/>
    <trip id="112" depart="35.24" from="right4E4" to="A3A4.80.00" type="passenger"/>
    <trip id="113" depart="35.27" from="C1C2" to="B0A0.80.00" type="passenger"/>
    <trip id="114" depart="35.36" from="B0C0.80.00" to="top2C4.80.00" type="passenger"/>
    <trip id="115" depart="35.77" from="C0C1.80.00" to="C2C1.80.00" type="passenger"/>
    <trip id="116" depart="36.01" from="B1B0" to="A1A2.80.00" type="passenger"/>
    <trip id="117" depart="36.10" from="C0C1.80.00" to="D2C2.80.00" type="passenger"/>
    <trip id="118" depart="36.40" from="bottom2C0" to="D4E4" type="passenger"/>
    <trip id="119" depart="36.70" from="D2D1.80.00" to="right4E4.80.00" type="passenger"/>
    <trip id="120" depart="36.88" from="E3E4.80.00" to="A1left1" type="passenger"/>
    <trip id="121" depart="36.98" from="B2C2.80.00" to="B1B2" type="passenger"/>
    <trip id="122" depart="37.08" from="B1B2.80.00" to="C4B4.80.00" type="passenger"/>
    <trip id="123" depart="37.10" from="D2D1" to="C0C1" type="passenger"/>
    <trip id="124" depart="37.21" from="bottom0A0.80.00" to="C0B0.80.00" type="passenger"/>
    <trip id="125" depart="37.54" from="E2D2" to="B3B4.80.00" type="passenger"/>
    <trip id="126" depart="37.71" from="D3E3" to="A2A3" type="passenger"/>
    <trip id="127" depart="37.79" from="bottom2C0" to="E3E4" type="passenger"/>
    <trip id="128" depart="37.84" from="top1B4" to="D4D3.80.00" type="passenger"/>
    <trip id="129" depart="38.34" from="left4A4.80.00" to="E1E0.80.00" type="passenger"/>
    <trip id="130" depart="38.38" from="B2B1.80.00" to="B0A0.80.00" type="passenger"/>
    <trip id="131" depart="38.77" from="right4E4" to="B1B2" type="passenger"/>
    <trip id="132" depart="38.78" from="B2A2.80.00" to="C0B0.80.00" type="passenger"/>
    <trip id="133" depart="39.01" from="C2B2.80.00" to="B4C4.80.00" type="passenger"/>
    <trip id="134" depart="39.06" from="top1B4.80.00" to="E4D4" type="passenger"/>
    <trip id="135" depart="39.08" from="E4D4" to="A4B4.80.00" type="passenger"/>
    <trip id="136" depart="39.94" from="C3C4" to="right4E4.80.00" type="passenger"/>
    <trip id="137" depart="40.25" from="E3D3" to="C3C2" type="passenger"/>
    <trip id="138" depart="40.42" from="B1C1" to="C4C3.80.00" type="passenger"/>
    <trip id="139" depart="40.62" from="A0A1.80.00" to="C3D3.80.00" type="passenger"/>
    <trip id="140" depart="40.74" from="C1C2.80.00" to="E4E3" type="passenger"/>
    <trip id="141" depart="41.02" from="E0E1" to="E1D1" type="passenger"/>
    <trip id="142" depart="41.03" from="D0D1" to="A1A0" type="passenger"/>
    <trip id="143" depart="41.13" from="E3D3" to="A0A1" type="passenger"/>
    <trip id="144" depart="41.50" from="A3A4.80.00" to="D2E2.80.00" type="passenger"/>
    <trip id="145" depart="41.93" from="C0C1.80.00" to="A2B2" type="passenger"/>
    <trip id="146" depart="41.94" from="C3B3.80.00" to="E2D2" type="passenger"/>
    <trip id="147" depart="42.44" from="D4D3" to="B3B2.80.00" type="passenger"/>
    <trip id="148" depart="42.60" from="B0C0.80.00" to="B0C0" type="passenger"/>
    <trip id="149" depart="43.16" from="C1C2.80.00" to="bottom1B0.80.00" type="passenger"/>
    <trip id="150" depart="43.35" from="left4A4.80.00" to="C0bottom2" type="passenger"/>
    <trip id="151" depart="43.52" from="E1D1.80.00" to="C0C1" type="passenger"/>
    <trip id="152" depart="43.59" from="B3B4.80.00" to="C1B1.80.00" type="passenger"/>
    <trip id="153" depart="45.15" from="right1E1" to="D0C0.80.00" type="passenger"/>
    <trip id="154" depart="46.26" from="E0D0" to="E0right0" type="passenger"/>
    <trip id="155" depart="46.69" from="C4C3.80.00" to="D2D3" type="passenger"/>
    <trip id="156" depart="46.93" from="B3B4.80.00" to="D0E0.80.00" type="passenger"/>
    <trip id="157" depart="47.54" from="D3E3" to="E2E3.80.00" type="passenger"/>
    <trip id="158" depart="47.67" from="C0C1" to="E3E2" type="passenger"/>
    <trip id="159" depart="47.76" from="left0A0" to="C1B1.80.00" type="passenger"/>
    <trip id="160" depart="47.89" from="C3C2" to="B0A0" type="passenger"/>
    <trip id="161" depart="48.07" from="B1B0.80.00" to="top4E4.80.00" type="passenger"/>
    <trip id="162" depart="48.92" from="left0A0" to="bottom0A0.80.00" type="passenger"/>
    <trip id="163" depart="49.10" from="B1C1.80.00" to="B2C2" type="passenger"/>
    <trip id="164" depart="49.51" from="A0A1.80.00" to="D2D3.80.00" type="passenger"/>
    <trip id="165" depart="49.76" from="left4A4" to="D1D0" type="passenger"/>
    <trip id="166" depart="50.05" from="B1B2" to="D3D2" type="passenger"/>
    <trip id="167" depart="50.43" from="C3B3" to="D2E2" type="passenger"/>
    <trip id="168" depart="50.54" from="D4C4.80.00" to="D2C2.80.00" type="passenger"/>
    <trip id="169" depart="50.61" from="C4D4" to="C1D1" type="passenger"/>
    <trip id="170" depart="51.03" from="B3C3.80.00" to="E0D0.80.00" type="passenger"/>
    <trip id="171" depart="51.09" from="E2E1.80.00" to="C4C3" type="passenger"/>
    <trip id="172" depart="51.28" from="E1D1.80.00" to="D4D3" type="passenger"/>
    <trip id="173" depart="51.36" from="B1B0.80.00" to="E0bottom4" type="passenger"/>
    <trip id="174" depart="51.37" from="B0C0" to="top4E4.80.00" type="passenger"/>
    <trip id="175" depart="51.78" from="A0A1" to="D4D3" type="passenger"/>
    <trip id="176" depart="52.63" from="B0A0.80.00" to="C1D1.80.00" type="passenger"/>
    <trip id="177" depart="52.65" from="D1D0" to="B4A4" type="passenger"/>
    <trip id="178" depart="53.23" from="A3B3" to="C3C2" type="passenger"/>
    <trip id="179" depart="53.30" from="top4E4.80.00" to="B1B2.80.00" type="passenger"/>
    <trip id="180" depart="53.37" from="A2A3" to="A0B0" type="passenger"/>
    <trip id="181" depart="53.42" from="E1D1.80.00" to="C0C1.80.00" type="passenger"/>
    <trip id="182" depart="53.50" from="D3E3.80.00" to="C0C1.80.00" type="passenger"/>
    <trip id="183" depart="53.50" from="top0A4.80.00" to="D2E2.80.00" type="passenger"/>
    <trip id="184" depart="53.61" from="E4D4.80.00" to="E3E4.80.00" type="passenger"/>
    <trip id="185" depart="53.71" from="E4E3" to="B4A4.80.00" type="passenger"/>
    <trip id="186" depart="53.86" from="bottom0A0" to="B3A3.80.00" type="passenger"/>
    <trip id="187" depart="54.41" from="A4B4.80.00" to="C3D3" type="passenger"/>
    <trip id="188" depart="54.58" from="C1C2" to="B3A3.80.00" type="passenger"/>
    <trip id="189" depart="54.64" from="C1D1.80.00" to="B2B3" type="passenger"/>
    <trip id="190" depart="54.76" from="D1D0" to="A3A2" type="passenger"/>
    <trip id="191" depart="55.02" from="B3A3" to="A0B0" type="passenger"/>
    <trip id="192" depart="55.02" from="C1B1.80.00" to="D1D2.80.00" type="passenger"/>
    <trip id="193" depart="55.16" from="B1A1" to="A4top0" type="passenger"/>
    <trip id="194" depart="55.32" from="E3E2" to="E1E2" type="passenger"/>
    <trip id="195" depart="55.86" from="D1C1" to="A2left2" type="passenger"/>
    <trip id="196" depart="55.90" from="E3E4" to="E2D2.80.00" type="passenger"/>
    <trip id="197" depart="56.05" from="B4C4" to="C3B3.80.00" type="passenger"/>
    <trip id="198" depart="56.50" from="B3B4.80.00" to="C2C1.80.00" type="passenger"/>
    <trip id="199" depart="56.89" from="E0E1.80.00" to="B4A4.80.00" type="passenger"/>
    <trip id="200" depart="57.22" from="B3A3.80.00" to="C0C1.80.00" type="passenger"/>
    <trip id="201" depart="57.40" from="A2A3.80.00" to="C2C1" type="passenger"/>
    <trip id="202" depart="57.75" from="E1E2" to="E4right4" type="passenger"/>
    <trip id="203" depart="58.22" from="E0D0" to="E2D2.80.00" type="passenger"/>
    <trip id="204" depart="58.51" from="C4D4" to="B2A2" type="passenger"/>
    <trip id="205" depart="58.73" from="C0C1" to="bottom3D0.80.00" type="passenger"/>
    <trip id="206" depart="59.68" from="D4D3.80.00" to="B4C4.80.00" type="passenger"/>
    <trip id="207" depart="59.90" from="C3D3" to="B3A3" type="passenger"/>
    <trip id="208" depart="59.92" from="D3D2.80.00" to="A2left2" type="passenger"/>
    <trip id="209" depart="60.20" from="D1D0.80.00" to="D4E4.80.00" type="passenger"/>
    <trip id="210" depart="60.54" from="A0A1" to="D3D4" type="passenger"/>
    <trip id="211" depart="60.73" from="E0D0.80.00" to="E1D1" type="passenger"/>
    <trip id="212" depart="62.10" from="right4E4" to="E3D3" type="passenger"/>
    <trip id="213" depart="63.51" from="B4A4.80.00" to="A3A4.80.00" type="passenger"/>
    <trip id="214" depart="63.60" from="C4B4" to="B4A4.80.00" type="passenger"/>
    <trip id="215" depart="64.03" from="C3B3.80.00" to="right2E2.80.00" type="passenger"/>
    <trip id="216" depart="64.53" from="D4C4" to="C0bottom2" type="passenger"/>
    <trip id="217" depart="64.68" from="bottom0A0.80.00" to="B0B1.80.00" type="passenger"/>
    <trip id="218" depart="65.10" from="bottom2C0" to="A0left0" type="passenger"/>
    <trip id="219" depart="65.29" from="E3D3.80.00" to="B4B3" type="passenger"/>
    <trip id="220" depart="65.32" from="D1E1" to="C0B0" type="passenger"/>
    <trip id="221" depart="65.41" from="A4A3.80.00" to="A2B2.80.00" type="passenger"/>
    <trip id="222" depart="65.54" from="top2C4.80.00" to="E2E3.80.00" type="passenger"/>
    <trip id="223" depart="65.68" from="A1B1" to="E2D2" type="passenger"/>
    <trip id="224" depart="65.85" from="C0B0.80.00" to="C4top2" type="passenger"/>
    <trip id="225" depart="66.01" from="E4E3" to="D4top3" type="passenger"/>
    <trip id="226" depart="66.06" from="D0C0" to="B3A3" type="passenger"/>
    <trip id="227" depart="66.42" from="A3A4" to="A1B1" type="passenger"/>
    <trip id="228" depart="67.33" from="B4C4" to="C4C3" type="passenger"/>
    <trip id="229" depart="68.12" from="bottom1B0" to="B1A1" type="passenger"/>
    <trip id="230" depart="68.16" from="C0D0.80.00" to="B3B2" type="passenger"/>
    <trip id="231" depart="68.35" from="D2C2.80.00" to="D2D1" type="passenger"/>
    <trip id="232" depart="68.70" from="D4E4" to="B3B2.80.00" type="passenger"/>
    <trip id="233" depart="68.75" from="bottom1B0" to="right3E3.80.00" type="passenger"/>
    <trip id="234" depart="68.91" from="D2C2.80.00" to="A1B1.80.00" type="passenger"/>
    <trip id="235" depart="68.95" from="E4D4" to="top0A4.80.00" type="passenger"/>
    <trip id="236" depart="69.12" from="E1E0.80.00" to="D4D3.80.00" type="passenger"/>
    <trip id="237" depart="69.21" from="B0B1" to="top1B4.80.00" type="passenger"/>
    <trip id="238" depart="69.37" from="C2C1" to="D0D1.80.00" type="passenger"/>
    <trip id="239" depart="69.41" from="D2C2" to="A0A1" type="passenger"/>
    <trip id="240" depart="70.15" from="D4D3" to="E3D3.80.00" type="passenger"/>
    <trip id="241" depart="70.54" from="D4D3.80.00" to="A2B2.80.00" type="passenger"/>
    <trip id="242" depart="70.93" from="E3E2" to="D1E1.80.00" type="passenger"/>
    <trip id="243" depart="71.39" from="D1C1" to="C1C0" type="passenger"/>
    <trip id="244" depart="71.49" from="E4D4" to="B2B1.80.00" type="passenger"/>
    <trip id="245" depart="71.52" from="D3D4.80.00" to="B0B1.80.00" type="passenger"/>
    <trip id="246" depart="71.69" from="top3D4.80.00" to="right0E0.80.00" type="passenger"/>
    <trip id="247" depart="71.92" from="bottom1B0" to="top3D4.80.00" type="passenger"/>
    <trip id="248" depart="71.94" from="B4A4.80.00" to="B1B0" type="passenger"/>
    <trip id="249" depart="71.98" from="B4B3" to="A4left4" type="passenger"/>
    <trip id="250" depart="72.43" from="D2D3" to="A0bottom0" type="passenger"/>
    <trip id="251" depart="72.58" from="C4C3.80.00" to="A0A1.80.00" type="passenger"/>
    <trip id="252" depart="72.76" from="D0E0.80.00" to="A2left2" type="passenger"/>
    <trip id="253" depart="72.77" from="B2B1.80.00" to="E2D2.80.00" type="passenger"/>
    <trip id="254" depart="72.82" from="A2A3" to="A3A4.80.00" type="passenger"/>
    <trip id="255" depart="72.83" from="C3C4" to="B3B2.80.00" type="passenger"/>
    <trip id="256" depart="72.84" from="B1A1.80.00" to="D3D2.80.00" type="passenger"/>
    <trip id="257" depart="73.13" from="B2A2" to="B3B4.80.00" type="passenger"/>
    <trip id="258" depart="73.55" from="E4D4.80.00" to="E3D3.80.00" type="passenger"/>
    <trip id="259" depart="74.07" from="A3A4.80.00" to="D3D2" type="passenger"/>
    <trip id="260" depart="74.08" from="A2A1" to="C2B2.80.00" type="passenger"/>
    <trip id="261" depart="74.11" from="C1C0" to="D3E3" type="passenger"/>
    <trip id="262" depart="74.34" from="D3E3.80.00" to="A3A4" type="passenger"/>
    <trip id="263" depart="74.43" from="left0A0.80.00" to="A1A2" type="passenger"/>
    <trip id="264" depart="74.54" from="A2A3.80.00" to="top3D4.80.00" type="passenger"/>
    <trip id="265" depart="74.69" from="right4E4.80.00" to="C4C3.80.00" type="passenger"/>
    <trip id="266" depart="74.72" from="right3E3.80.00" to="A3B3" type="passenger"/>
    <trip id="267" depart="74.96" from="B2B3" to="right0E0.80.00" type="passenger"/>
    <trip id="268" depart="75.18" from="bottom1B0.80.00" to="D1E1" type="passenger"/>
    <trip id="269" depart="75.30" from="E2E1.80.00" to="A4left4" type="passenger"/>
    <trip id="270" depart="75.48" from="C0B0.80.00" to="right4E4.80.00" type="passenger"/>
    <trip id="271" depart="75.63" from="right2E2.80.00" to="A2A3" type="passenger"/>
    <trip id="272" depart="75.91" from="A3B3" to="D2D3.80.00" type="passenger"/>
    <trip id="273" depart="76.38" from="right0E0.80.00" to="C3C4.80.00" type="passenger"/>
    <trip id="274" depart="76.58" from="C1C2" to="A1A2" type="passenger"/>
    <trip id="275" depart="76.92" from="bottom4E0" to="A2A1" type="passenger"/>
    <trip id="276" depart="77.03" from="C3C2.80.00" to="left4A4.80.00" type="passenger"/>
    <trip id="277" depart="77.05" from="C1C2" to="B1B2.80.00" type="passenger"/>
    <trip id="278" depart="77.06" from="D4E4.80.00" to="C3D3.80.00" type="passenger"/>
    <trip id="279" depart="77.47" from="right3E3.80.00" to="D0E0.80.00" type="passenger"/>
    <trip id="280" depart="78.18" from="top1B4.80.00" to="A3B3" type="passenger"/>
    <trip id="281" depart="78.19" from="B4B3" to="B1C1.80.00" type="passenger"/>
    <trip id="282" depart="78.67" from="left0A0" to="C4D4" type="passenger"/>
    <trip id="283" depart="79.05" from="E3E4.80.00" to="A0A1" type="passenger"/>
    <trip id="284" depart="79.22" from="E0D0.80.00" to="bottom0A0.80.00" type="passenger"/>
    <trip id="285" depart="79.34" from="C1B1" to="D2E2.80.00" type="passenger"/>
    <trip id="286" depart="79.50" from="D2C2.80.00" to="D1E1" type="passenger"/>
    <trip id="287" depart="79.74" from="C3C4" to="D2D3.80.00" type="passenger"/>
    <trip id="288" depart="80.52" from="bottom0A0" to="C4top2" type="passenger"/>
    <trip id="289" depart="80.63" from="B4A4" to="B0A0" type="passenger"/>
    <trip id="290" depart="80.80" from="bottom0A0" to="B3C3" type="passenger"/>
    <trip id="291" depart="80.82" from="bottom0A0" to="E1right1" type="passenger"/>
    <trip id="292" depart="81.02" from="B0C0.80.00" to="C3D3" type="passenger"/>
    <trip id="293" depart="81.26" from="D3E3" to="A2A1" type="passenger"/>
    <trip id="294" depart="81.36" from="A1A2.80.00" to="A1A0.80.00" type="passenger"/>
    <trip id="295" depart="81.38" from="bottom4E0.80.00" to="B4B3" type="passenger"/>
    <trip id="296" depart="81.73" from="C1B1.80.00" to="A2left2" type="passenger"/>
    <trip id="297" depart="81.75" from="C0D0" to="B4C4.80.00" type="passenger"/>
    <trip id="298" depart="81.82" from="D3C3.80.00" to="top0A4.80.00" type="passenger"/>
    <trip id="299" depart="81.89" from="B2A2" to="B2B1" type="passenger"/>
    <trip id="300" depart="82.21" from="D1D2.80.00" to="right3E3.80.00" type="passenger"/>
    <trip id="301" depart="82.37" from="C2C3.80.00" to="E2E3.80.00" type="passenger"/>
    <trip id="302" depart="82.50" from="bottom0A0.80.00" to="C2B2" type="passenger"/>
    <trip id="303" depart="82.58" from="C0C1" to="left2A2.80.00" type="passenger"/>
    <trip id="304" depart="82.71" from="E2D2.80.00" to="B4C4.80.00" type="passenger"/>
    <trip id="305" depart="82.75" from="D1C1.80.00" to="bottom0A0.80.00" type="passenger"/>
    <trip id="306" depart="82.77" from="right3E3" to="A3A4" type="passenger"/>
    <trip id="307" depart="82.98" from="D1D2.80.00" to="C2B2.80.00" type="passenger"/>
    <trip id="308" depart="83.88" from="D2D1" to="A2left2" type="passenger"/>
    <trip id="309" depart="84.06" from="E3D3.80.00" to="C1B1.80.00" type="passenger"/>
    <trip id="310" depart="84.27" from="B0C0" to="C1D1.80.00" type="passenger"/>
    <trip id="311" depart="84.50" from="C3B3" to="D4E4" type="passenger"/>
    <trip id="312" depart="85.37" from="D1D0.80.00" to="B1A1.80.00" type="passenger"/>
    <trip id="313" depart="85.95" from="C2D2.80.00" to="C3C2.80.00" type="passenger"/>
    <trip id="314" depart="86.71" from="B2B1.80.00" to="A2left2" type="passenger"/>
    <trip id="315" depart="86.81" from="B3B2" to="B2B3" type="passenger"/>
    <trip id="316" depart="87.30" from="D0D1.80.00" to="D1D0.80.00" type="passenger"/>
    <trip id="317" depart="87.51" from="left3A3.80.00" to="D2C2" type="passenger"/>
    <trip id="318" depart="87.81" from="bottom0A0" to="top2C4.80.00" type="passenger"/>
    <trip id="319" depart="87.92" from="B2B3.80.00" to="C3C4" type="passenger"/>
    <trip id="320" depart="88.02" from="C2D2" to="D4E4" type="passenger"/>
    <trip id="321" depart="88.24" from="left3A3.80.00" to="E4E3" type="passenger"/>
    <trip id="322" depart="88.65" from="D4D3.80.00" to="C4D4.80.00" type="passenger"/>
    <trip id="323" depart="88.90" from="right0E0" to="D0D1.80.00" type="passenger"/>
    <trip id="324" depart="89.52" from="C0C1" to="C1D1" type="passenger"/>
    <trip id="325" depart="90.25" from="left4A4" to="D3E3" type="passenger"/>
    <trip id="326" depart="90.30" from="left3A3.80.00" to="A3A2" type="passenger"/>
    <trip id="327" depart="91.04" from="D3C3.80.00" to="B1A1.80.00" type="passenger"/>
    <trip id="328" depart="91.09" from="D0C0" to="C1B1" type="passenger"/>
    <trip id="329" depart="91.30" from="C3C4" to="B3B2" type="passenger"/>
    <trip id="330" depart="91.37" from="top3D4.80.00" to="B4A4" type="passenger"/>
    <trip id="331" depart="91.68" from="top1B4.80.00" to="C2C1" type="passenger"/>
    <trip id="332" depart="91.80" from="B3B4.80.00" to="D3D2" type="passenger"/>
    <trip id="333" depart="91.83" from="A4B4.80.00" to="B4C4.80.00" type="passenger"/>
    <trip id="334" depart="92.09" from="D2D3.80.00" to="B4C4" type="passenger"/>
    <trip id="335" depart="92.38" from="B0B1.80.00" to="D3C3.80.00" type="passenger"/>
    <trip id="336" depart="92.78" from="left0A0.80.00" to="E0E1.80.00" type="passenger"/>
    <trip id="337" depart="92.86" from="bottom0A0" to="D2D1.80.00" type="passenger"/>
    <trip id="338" depart="93.24" from="D4C4" to="C4C3.80.00" type="passenger"/>
    <trip id="339" depart="93.31" from="B3B2.80.00" to="E4right4" type="passenger"/>
    <trip id="340" depart="93.74" from="C1B1.80.00" to="B4A4.80.00" type="passenger"/>
    <trip id="341" depart="93.77" from="B2B1" to="D4C4" type="passenger"/>
    <trip id="342" depart="94.14" from="C3B3.80.00" to="bottom3D0.80.00" type="passenger"/>
    <trip id="343" depart="94.15" from="bottom3D0.80.00" to="E0D0" type="passenger"/>
    <trip id="344" depart="94.31" from="B4A4" to="right3E3.80.00" type="passenger"/>
    <trip id="345" depart="94.54" from="C4B4" to="D0C0.80.00" type="passenger"/>
    <trip id="346" depart="94.86" from="D1D2.80.00" to="A2A1.80.00" type="passenger"/>
    <trip id="347" depart="95.14" from="bottom1B0" to="B0C0" type="passenger"/>
    <trip id="348" depart="95.24" from="E3D3.80.00" to="E2right2" type="passenger"/>
    <trip id="349" depart="95.34" from="D2D3" to="D4D3" type="passenger"/>
    <trip id="350" depart="95.71" from="D1C1.80.00" to="B3B2.80.00" type="passenger"/>
    <trip id="351" depart="95.90" from="D3C3" to="D2C2.80.00" type="passenger"/>
    <trip id="352" depart="95.91" from="D1E1.80.00" to="C2D2.80.00" type="passenger"/>