<?xml version="1.0" encoding="UTF-8"?>

<!-- generated on 2023-02-12 18:46:57.354641 by randomTrips.py UNKNOWN
<configuration>
    <begin value="0"/>
    <end value="900"/>
    <insertion-rate value="12500.0"/>
    <net-file value="/home/franky3er/Documents/code/HieraGLight/scenarios/grid/5x5-150m/train/63-scenario/network.net.xml"/>
    <random value="True"/>
    <random-depart value="True"/>
    <route-file value="/home/franky3er/Documents/code/HieraGLight/scenarios/grid/5x5-150m/train/63-scenario/routes.rou.xml"/>
    <seed value="63"/>
    <output-trip-file value="/home/franky3er/Documents/code/HieraGLight/scenarios/grid/5x5-150m/train/63-scenario/trips.trips.xml"/>
    <vehicle-class value="passenger"/>
</configuration>
-->

<routes xmlns:xsi="http://www.w3.org/2001/XMLSchema-instance" xsi:noNamespaceSchemaLocation="http://sumo.dlr.de/xsd/routes_file.xsd">
    <vType id="passenger" vClass="passenger"/>
    <trip id="0" depart="0.07" from="right2E2" to="A0bottom0" type="passenger"/>
    <trip id="1" depart="0.19" from="C4B4" to="B1B2" type="passenger"/>
    <trip id="2" depart="0.54" from="B0B1" to="bottom3D0.80.00" type="passenger"/>
    <trip id="3" depart="0.55" from="D2E2.80.00" to="A0left0" type="passenger"/>
    <trip id="4" depart="1.40" from="C0B0.80.00" to="D4E4" type="passenger"/>
    <trip id="5" depart="1.62" from="D4C4.80.00" to="D4top3" type="passenger"/>
    <trip id="6" depart="2.37" from="E3E2" to="D4D3" type="passenger"/>
    <trip id="7" depart="2.40" from="top2C4" to="D4C4" type="passenger"/>
    <trip id="8" depart="2.72" from="A1A0.80.00" to="C0D0.80.00" type="passenger"/>
    <trip id="9" depart="2.97" from="B2A2" to="B1B0" type="passenger"/>
    <trip id="10" depart="3.13" from="D4D3.80.00" to="A3left3" type="passenger"/>
    <trip id="11" depart="3.42" from="bottom2C0" to="E4top4" type="passenger"/>
    <trip id="12" depart="3.82" from="B0A0.80.00" to="C1C0.80.00" type="passenger"/>
    <trip id="13" depart="4.02" from="C1C2.80.00" to="C1C2" type="passenger"/>
    <trip id="14" depart="4.33" from="B2A2" to="C4C3" type="passenger"/>
    <trip id="15" depart="4.60" from="bottom2C0.80.00" to="A1B1" type="passenger"/>
    <trip id="16" depart="4.62" from="D0C0" to="A1A0" type="passenger"/>
    <trip id="17" depart="4.87" from="E2D2" to="left4A4.80.00" type="passenger"/>
    <trip id="18" depart="5.31" from="right3E3" to="C0C1.80.00" type="passenger"/>
    <trip id="19" depart="5.60" from="bottom4E0" to="C3D3.80.00" type="passenger"/>
    <trip id="20" depart="5.74" from="A3A2.80.00" to="E3E4" type="passenger"/>
    <trip id="21" depart="5.74" from="bottom0A0" to="E2right2" type="passenger"/>
    <trip id="22" depart="5.84" from="E3E2.80.00" to="top4E4.80.00" type="passenger"/>
    <trip id="23" depart="5.88" from="right0E0.80.00" to="C3D3.80.00" type="passenger"/>
    <trip id="24" depart="6.16" from="E3E2.80.00" to="A2A3.80.00" type="passenger"/>
    <trip id="25" depart="7.43" from="D4C4.80.00" to="A4left4" type="passenger"/>
    <trip id="26" depart="7.54" from="D3E3" to="A1B1" type="passenger"/>
    <trip id="27" depart="8.02" from="E0D0.80.00" to="C1D1" type="passenger"/>
    <trip id="28" depart="8.58" from="D4D3" to="A1B1" type="passenger"/>
    <trip id="29" depart="9.58" from="B0B1" to="D2D3" type="passenger"/>
    <trip id="30" depart="9.84" from="right4E4" to="C2C3" type="passenger"/>
    <trip id="31" depart="10.35" from="right3E3" to="A2A3" type="passenger"/>
    <trip id="32" depart="10.44" from="B2B1" to="C1C2.80.00" type="passenger"/>
    <trip id="33" depart="10.81" from="A3A4" to="E1E0" type="passenger"/>
    <trip id="34" depart="10.86" from="right4E4.80.00" to="A4A3.80.00" type="passenger"/>
    <trip id="35" depart="11.02" from="C2C3" to="B4C4.80.00" type="passenger"/>
    <trip id="36" depart="11.05" from="C0B0" to="E4top4" type="passenger"/>
    <trip id="37" depart="11.05" from="D3D2.80.00" to="C1D1.80.00" type="passenger"/>
    <trip id="38" depart="11.10" from="top2C4.80.00" to="D1C1.80.00" type="passenger"/>
    <trip id="39" depart="11.54" from="A1A2" to="B2B3.80.00" type="passenger"/>
    <trip id="40" depart="12.19" from="B3B4" to="A1A0" type="passenger"/>
    <trip id="41" depart="12.34" from="C0D0" to="D1C1" type="passenger"/>
    <trip id="42" depart="12.66" from="C0D0" to="B4C4" type="passenger"/>
    <trip id="43" depart="12.67" from="E0D0.80.00" to="E1right1" type="passenger"/>
    <trip id="44" depart="12.76" from="A3A4" to="D3D4.80.00" type="passenger"/>
    <trip id="45" depart="13.38" from="E2D2.80.00" to="D2D3" type="passenger"/>
    <trip id="46" depart="14.34" from="E3D3" to="D0D1" type="passenger"/>
    <trip id="47" depart="14.74" from="B0B1.80.00" to="D3C3.80.00" type="passenger"/>
    <trip id="48" depart="15.14" from="E4D4" to="A4B4" type="passenger"/>
    <trip id="49" depart="15.42" from="D2E2" to="A1B1.80.00" type="passenger"/>
    <trip id="50" depart="15.62" from="C1B1" to="B4C4.80.00" type="passenger"/>
    <trip id="51" depart="15.82" from="D4E4.80.00" to="top2C4.80.00" type="passenger"/>
    <trip id="52" depart="16.00" from="C4C3.80.00" to="A2left2" type="passenger"/>
    <trip id="53" depart="16.35" from="C4C3" to="B2B1.80.00" type="passenger"/>
    <trip id="54" depart="16.37" from="A1A2.80.00" to="C2C1" type="passenger"/>
    <trip id="55" depart="16.47" from="C2C3" to="left3A3.80.00" type="passenger"/>
    <trip id="56" depart="16.72" from="A1A2" to="left4A4.80.00" type="passenger"/>
    <trip id="57" depart="17.56" from="C0D0.80.00" to="D4C4.80.00" type="passenger"/>
    <trip id="58" depart="17.63" from="B4A4.80.00" to="A0B0.80.00" type="passenger"/>
    <trip id="59" depart="17.63" from="D1C1" to="A3left3" type="passenger"/>
    <trip id="60" depart="17.78" from="B3B4" to="B1A1" type="passenger"/>
    <trip id="61" depart="18.15" from="D4E4" to="B0A0.80.00" type="passenger"/>
    <trip id="62" depart="18.30" from="bottom3D0" to="C0C1.80.00" type="passenger"/>
    <trip id="63" depart="18.76" from="D3D4" to="B0bottom1" type="passenger"/>
    <trip id="64" depart="19.10" from="C1B1.80.00" to="D2D3.80.00" type="passenger"/>
    <trip id="65" depart="19.19" from="A1A2" to="E2E3" type="passenger"/>
    <trip id="66" depart="19.34" from="C1C0.80.00" to="bottom4E0.80.00" type="passenger"/>
    <trip id="67" depart="19.73" from="C2C3.80.00" to="top2C4.80.00" type="passenger"/>
    <trip id="68" depart="19.92" from="C0C1" to="A1left1" type="passenger"/>
    <trip id="69" depart="19.97" from="C4C3" to="left4A4.80.00" type="passenger"/>
    <trip id="70" depart="20.75" from="C1C2" to="D1D0" type="passenger"/>
    <trip id="71" depart="20.78" from="left4A4" to="A3A4" type="passenger"/>
    <trip id="72" depart="20.94" from="B0C0.80.00" to="left0A0.80.00" type="passenger"/>
    <trip id="73" depart="21.28" from="B1A1" to="B3B4.80.00" type="passenger"/>
    <trip id="74" depart="21.65" from="D4D3.80.00" to="A2B2" type="passenger"/>
    <trip id="75" depart="21.80" from="C4C3.80.00" to="E0E1" type="passenger"/>
    <trip id="76" depart="22.02" from="E1E0.80.00" to="B1A1.80.00" type="passenger"/>
    <trip id="77" depart="22.18" from="B3A3" to="C2B2" type="passenger"/>
    <trip id="78" depart="22.29" from="A2B2" to="D0C0.80.00" type="passenger"/>
    <trip id="79" depart="22.54" from="A0B0.80.00" to="D1D0" type="passenger"/>
    <trip id="80" depart="22.80" from="D2D1.80.00" to="D3E3.80.00" type="passenger"/>
    <trip id="81" depart="23.03" from="A1B1" to="left2A2.80.00" type="passenger"/>
    <trip id="82" depart="23.50" from="E4D4" to="D3C3" type="passenger"/>
    <trip id="83" depart="23.98" from="A3A4" to="bottom4E0.80.00" type="passenger"/>
    <trip id="84" depart="24.06" from="B4A4.80.00" to="D2D3.80.00" type="passenger"/>
    <trip id="85" depart="24.22" from="top2C4.80.00" to="C0C1.80.00" type="passenger"/>
    <trip id="86" depart="24.79" from="D4E4" to="C0B0" type="passenger"/>
    <trip id="87" depart="25.02" from="C4B4" to="E4top4" type="passenger"/>
    <trip id="88" depart="25.14" from="E1E0" to="A2B2" type="passenger"/>
    <trip id="89" depart="25.34" from="B4B3.80.00" to="top1B4.80.00" type="passenger"/>
    <trip id="90" depart="26.41" from="E3E4.80.00" to="E3E4" type="passenger"/>
    <trip id="91" depart="26.73" from="D1E1.80.00" to="E1E2" type="passenger"/>
    <trip id="92" depart="26.99" from="C1D1.80.00" to="B3A3.80.00" type="passenger"/>
    <trip id="93" depart="27.22" from="A4B4" to="C2C3.80.00" type="passenger"/>
    <trip id="94" depart="27.49" from="A0A1.80.00" to="C4D4" type="passenger"/>
    <trip id="95" depart="27.73" from="C0D0" to="A2B2" type="passenger"/>
    <trip id="96" depart="28.23" from="C0C1" to="B0C0.80.00" type="passenger"/>
    <trip id="97" depart="29.02" from="E2D2" to="E4D4.80.00" type="passenger"/>
    <trip id="98" depart="29.26" from="C3C4" to="D2D3.80.00" type="passenger"/>
    <trip id="99" depart="29.54" from="B4C4.80.00" to="D1D2" type="passenger"/>
    <trip id="100" depart="29.70" from="top3D4.80.00" to="C4C3" type="passenger"/>
    <trip id="101" depart="29.74" from="D2E2" to="C1D1" type="passenger"/>
    <trip id="102" depart="29.87" from="left2A2" to="top2C4.80.00" type="passenger"/>
    <trip id="103" depart="29.87" from="D4E4.80.00" to="A4top0" type="passenger"/>
    <trip id="104" depart="30.18" from="A3A2" to="B2A2" type="passenger"/>
    <trip id="105" depart="30.86" from="left3A3" to="A1left1" type="passenger"/>
    <trip id="106" depart="31.02" from="B1A1" to="E2E3" type="passenger"/>
    <trip id="107" depart="31.06" from="left1A1.80.00" to="E3E4.80.00" type="passenger"/>
    <trip id="108" depart="31.10" from="E1E2" to="D2D1" type="passenger"/>
    <trip id="109" depart="31.18" from="C2D2.80.00" to="A4A3" type="passenger"/>
    <trip id="110" depart="31.46" from="D3D2.80.00" to="B3A3.80.00" type="passenger"/>
    <trip id="111" depart="31.88" from="D1D0" to="D1D0.80.00" type="passenger"/>
    <trip id="112" depart="32.15" from="D3E3.80.00" to="D4C4" type="passenger"/>
    <trip id="113" depart="32.17" from="B2C2.80.00" to="C2C3.80.00" type="passenger"/>
    <trip id="114" depart="32.41" from="B2B1.80.00" to="E3D3" type="passenger"/>
    <trip id="115" depart="32.90" from="D4E4" to="C2B2" type="passenger"/>
    <trip id="116" depart="33.50" from="A2A1" to="E0D0.80.00" type="passenger"/>
    <trip id="117" depart="34.11" from="D2D1.80.00" to="C4C3" type="passenger"/>
    <trip id="118" depart="34.22" from="B0A0" to="D2C2.80.00" type="passenger"/>
    <trip id="119" depart="34.42" from="D4E4" to="A3A4.80.00" type="passenger"/>
    <trip id="120" depart="34.61" from="D1D0.80.00" to="C3D3" type="passenger"/>
    <trip id="121" depart="35.31" from="C3B3" to="A2A3" type="passenger"/>
    <trip id="122" depart="35.32" from="C2C1.80.00" to="C3B3.80.00" type="passenger"/>
    <trip id="123" depart="35.95" from="C1B1.80.00" to="B4C4" type="passenger"/>
    <trip id="124" depart="35.98" from="D0E0" to="E4right4" type="passenger"/>
    <trip id="125" depart="36.46" from="E2E3.80.00" to="C2C1.80.00" type="passenger"/>
    <trip id="126" depart="36.50" from="A3A4" to="A3left3" type="passenger"/>
    <trip id="127" depart="38.04" from="C0B0" to="D3E3.80.00" type="passenger"/>
    <trip id="128" depart="38.80" from="D2C2" to="D0D1" type="passenger"/>
    <trip id="129" depart="38.94" from="left1A1.80.00" to="D2C2.80.00" type="passenger"/>
    <trip id="130" depart="38.98" from="B2B1" to="E3D3.80.00" type="passenger"/>
    <trip id="131" depart="39.62" from="left4A4.80.00" to="A1left1" type="passenger"/>
    <trip id="132" depart="39.65" from="top0A4.80.00" to="A1A0" type="passenger"/>
    <trip id="133" depart="39.95" from="left2A2.80.00" to="A4top0" type="passenger"/>
    <trip id="134" depart="40.52" from="right3E3.80.00" to="D4E4.80.00" type="passenger"/>
    <trip id="135" depart="40.62" from="A4A3" to="A3A4" type="passenger"/>
    <trip id="136" depart="41.23" from="bottom1B0" to="E1E2.80.00" type="passenger"/>
    <trip id="137" depart="41.67" from="C4D4" to="A2A1.80.00" type="passenger"/>
    <trip id="138" depart="41.84" from="top0A4" to="bottom1B0.80.00" type="passenger"/>
    <trip id="139" depart="43.47" from="bottom3D0" to="E2E3.80.00" type="passenger"/>
    <trip id="140" depart="43.47" from="top1B4" to="C2B2" type="passenger"/>
    <trip id="141" depart="43.53" from="A0A1" to="B1B2" type="passenger"/>
    <trip id="142" depart="43.81" from="C3C2" to="D3D2.80.00" type="passenger"/>
    <trip id="143" depart="43.81" from="B4C4" to="C2D2.80.00" type="passenger"/>
    <trip id="144" depart="44.02" from="left2A2" to="B1B2" type="passenger"/>
    <trip id="145" depart="44.12" from="B4C4.80.00" to="B4top1" type="passenger"/>
    <trip id="146" depart="44.58" from="D4E4.80.00" to="E4D4" type="passenger"/>
    <trip id="147" depart="45.00" from="E2D2" to="E4E3" type="passenger"/>
    <trip id="148" depart="45.45" from="B1B0.80.00" to="A2A3" type="passenger"/>
    <trip id="149" depart="46.27" from="C4D4.80.00" to="A0left0" type="passenger"/>
    <trip id="150" depart="46.41" from="C4D4" to="D3D4" type="passenger"/>
    <trip id="151" depart="46.42" from="D1E1.80.00" to="E1D1.80.00" type="passenger"/>
    <trip id="152" depart="46.60" from="C0B0" to="E4D4" type="passenger"/>
    <trip id="153" depart="46.98" from="D4C4.80.00" to="A2B2" type="passenger"/>
    <trip id="154" depart="47.09" from="B0B1.80.00" to="E2D2.80.00" type="passenger"/>
    <trip id="155" depart="48.41" from="C2C1" to="C4D4" type="passenger"/>
    <trip id="156" depart="48.58" from="B4C4.80.00" to="bottom2C0.80.00" type="passenger"/>
    <trip id="157" depart="48.58" from="E3E4" to="C2D2" type="passenger"/>
    <trip id="158" depart="49.17" from="bottom0A0" to="left1A1.80.00" type="passenger"/>
    <trip id="159" depart="49.25" from="left4A4" to="C2C1" type="passenger"/>
    <trip id="160" depart="49.52" from="C4D4" to="E1E0" type="passenger"/>
    <trip id="161" depart="49.73" from="B2B3.80.00" to="D0E0.80.00" type="passenger"/>
    <trip id="162" depart="49.91" from="D2D3" to="D0C0.80.00" type="passenger"/>
    <trip id="163" depart="50.43" from="B2C2.80.00" to="D3D2" type="passenger"/>
    <trip id="164" depart="50.50" from="A1B1.80.00" to="E3E4" type="passenger"/>
    <trip id="165" depart="50.51" from="D0C0" to="B3B4" type="passenger"/>
    <trip id="166" depart="50.61" from="D2C2" to="E1D1" type="passenger"/>
    <trip id="167" depart="51.20" from="B0A0.80.00" to="A2A3" type="passenger"/>
    <trip id="168" depart="51.22" from="bottom2C0.80.00" to="A0B0.80.00" type="passenger"/>
    <trip id="169" depart="52.02" from="E0D0.80.00" to="top1B4.80.00" type="passenger"/>
    <trip id="170" depart="52.21" from="C0C1" to="left3A3.80.00" type="passenger"/>
    <trip id="171" depart="52.21" from="B3A3" to="bottom1B0.80.00" type="passenger"/>
    <trip id="172" depart="52.42" from="C0B0" to="bottom3D0.80.00" type="passenger"/>
    <trip id="173" depart="52.90" from="bottom0A0.80.00" to="B0B1.80.00" type="passenger"/>
    <trip id="174" depart="53.11" from="B4B3.80.00" to="E0E1" type="passenger"/>
    <trip id="175" depart="53.42" from="D0C0" to="C0B0" type="passenger"/>
    <trip id="176" depart="53.58" from="C3B3" to="A0A1" type="passenger"/>
    <trip id="177" depart="53.84" from="right0E0" to="A4B4.80.00" type="passenger"/>
    <trip id="178" depart="54.21" from="C1C2" to="A1left1" type="passenger"/>
    <trip id="179" depart="54.44" from="top4E4.80.00" to="C3D3.80.00" type="passenger"/>
    <trip id="180" depart="55.16" from="C1C0.80.00" to="E3D3" type="passenger"/>
    <trip id="181" depart="55.25" from="E1E2.80.00" to="E2right2" type="passenger"/>
    <trip id="182" depart="55.54" from="E0D0" to="A2B2" type="passenger"/>
    <trip id="183" depart="55.93" from="right3E3" to="A4A3.80.00" type="passenger"/>
    <trip id="184" depart="55.96" from="E2D2" to="A0B0" type="passenger"/>
    <trip id="185" depart="56.14" from="bottom0A0" to="D0D1" type="passenger"/>
    <trip id="186" depart="56.73" from="C4B4" to="D1D0" type="passenger"/>
    <trip id="187" depart="57.08" from="A1B1.80.00" to="E3D3.80.00" type="passenger"/>
    <trip id="188" depart="58.06" from="B4B3.80.00" to="E3E2" type="passenger"/>
    <trip id="189" depart="58.26" from="A3A4.80.00" to="D2C2.80.00" type="passenger"/>
    <trip id="190" depart="58.60" from="A3A2.80.00" to="A2A3" type="passenger"/>
    <trip id="191" depart="58.68" from="D3C3.80.00" to="C1B1" type="passenger"/>
    <trip id="192" depart="58.81" from="B4B3" to="E1E2" type="passenger"/>
    <trip id="193" depart="59.08" from="E0D0" to="B2B1" type="passenger"/>
    <trip id="194" depart="59.42" from="B0B1" to="A3A2" type="passenger"/>
    <trip id="195" depart="59.42" from="right2E2" to="A0A1.80.00" type="passenger"/>
    <trip id="196" depart="60.17" from="E2D2" to="C3D3" type="passenger"/>
    <trip id="197" depart="60.70" from="D3D4.80.00" to="B3C3.80.00" type="passenger"/>
    <trip id="198" depart="60.71" from="left4A4.80.00" to="C3C2" type="passenger"/>
    <trip id="199" depart="61.21" from="C1C2" to="A1A2.80.00" type="passenger"/>
    <trip id="200" depart="61.74" from="B1B0" to="B3A3.80.00" type="passenger"/>
    <trip id="201" depart="61.74" from="B1B0.80.00" to="E0D0.80.00" type="passenger"/>
    <trip id="202" depart="62.06" from="E3E2" to="D3D2" type="passenger"/>
    <trip id="203" depart="62.26" from="C2C1" to="C2C3" type="passenger"/>
    <trip id="204" depart="62.86" from="D2D3" to="A2A1" type="passenger"/>
    <trip id="205" depart="63.50" from="D3D2" to="A0B0.80.00" type="passenger"/>
    <trip id="206" depart="63.81" from="E0E1" to="C3D3" type="passenger"/>
    <trip id="207" depart="64.16" from="C2D2.80.00" to="B1B2.80.00" type="passenger"/>
    <trip id="208" depart="64.38" from="B2B3.80.00" to="D4D3.80.00" type="passenger"/>
    <trip id="209" depart="64.44" from="E3E4" to="right2E2.80.00" type="passenger"/>
    <trip id="210" depart="64.81" from="top0A4.80.00" to="bottom0A0.80.00" type="passenger"/>
    <trip id="211" depart="64.82" from="D2C2" to="D1E1" type="passenger"/>
    <trip id="212" depart="64.94" from="C1D1" to="A3A2.80.00" type="passenger"/>
    <trip id="213" depart="65.15" from="D3D4.80.00" to="B0B1.80.00" type="passenger"/>
    <trip id="214" depart="65.25" from="C4B4" to="D4D3.80.00" type="passenger"/>
    <trip id="215" depart="65.77" from="E3E2.80.00" to="B2A2.80.00" type="passenger"/>
    <trip id="216" depart="66.17" from="D1C1" to="B4C4" type="passenger"/>
    <trip id="217" depart="66.35" from="E3E2" to="C2B2.80.00" type="passenger"/>
    <trip id="218" depart="66.74" from="C0D0" to="D2D1.80.00" type="passenger"/>
    <trip id="219" depart="66.82" from="E0E1" to="A4A3.80.00" type="passenger"/>
    <trip id="220" depart="67.03" from="C3C2.80.00" to="A2B2.80.00" type="passenger"/>
    <trip id="221" depart="67.06" from="B3B4" to="E3E2" type="passenger"/>
    <trip id="222" depart="67.21" from="B3B2.80.00" to="C2D2" type="passenger"/>
    <trip id="223" depart="67.26" from="D0C0" to="D3D4.80.00" type="passenger"/>
    <trip id="224" depart="67.62" from="E3E2" to="E4D4.80.00" type="passenger"/>
    <trip id="225" depart="67.82" from="C1C0.80.00" to="D1E1" type="passenger"/>
    <trip id="226" depart="67.91" from="D4E4" to="A0A1" type="passenger"/>
    <trip id="227" depart="69.36" from="D3E3.80.00" to="D4E4.80.00" type="passenger"/>
    <trip id="228" depart="69.37" from="B1B0" to="right0E0.80.00" type="passenger"/>
    <trip id="229" depart="69.98" from="A1A0.80.00" to="D2C2" type="passenger"/>
    <trip id="230" depart="70.18" from="C2C3.80.00" to="B3A3" type="passenger"/>
    <trip id="231" depart="70.76" from="C1C0" to="E4D4.80.00" type="passenger"/>
    <trip id="232" depart="71.07" from="E1E2" to="D2D3.80.00" type="passenger"/>
    <trip id="233" depart="71.37" from="A1A0.80.00" to="A3A4.80.00" type="passenger"/>
    <trip id="234" depart="71.57" from="C4D4" to="B0C0" type="passenger"/>
    <trip id="235" depart="71.77" from="D2D3" to="D0D1" type="passenger"/>
    <trip id="236" depart="71.82" from="C3C2.80.00" to="C3B3.80.00" type="passenger"/>
    <trip id="237" depart="72.40" from="D4D3" to="C1C0.80.00" type="passenger"/>
    <trip id="238" depart="72.43" from="B0A0" to="B3B2" type="passenger"/>
    <trip id="239" depart="72.48" from="B0C0.80.00" to="D4E4.80.00" type="passenger"/>
    <trip id="240" depart="72.88" from="D1C1.80.00" to="B3C3.80.00" type="passenger"/>
    <trip id="241" depart="72.90" from="D4C4" to="C3D3" type="passenger"/>
    <trip id="242" depart="72.90" from="A2A1" to="E3E4" type="passenger"/>
    <trip id="243" depart="73.22" from="top4E4.80.00" to="D4E4" type="passenger"/>
    <trip id="244" depart="73.56" from="B2B1.80.00" to="A3B3.80.00" type="passenger"/>
    <trip id="245" depart="73.70" from="right0E0.80.00" to="E2E1" type="passenger"/>
    <trip id="246" depart="73.93" from="A2A1.80.00" to="top0A4.80.00" type="passenger"/>
    <trip id="247" depart="74.34" from="right4E4" to="B4B3" type="passenger"/>
    <trip id="248" depart="74.47" from="A0B0" to="E4E3.80.00" type="passenger"/>
    <trip id="249" depart="74.60" from="right2E2.80.00" to="E3right3" type="passenger"/>
    <trip id="250" depart="74.70" from="B1C1.80.00" to="C3B3" type="passenger"/>
    <trip id="251" depart="74.80" from="B2C2.80.00" to="B3B4" type="passenger"/>
    <trip id="252" depart="75.06" from="B3A3.80.00" to="B0C0.80.00" type="passenger"/>
    <trip id="253" depart="75.28" from="D3C3" to="D2D3.80.00" type="passenger"/>
    <trip id="254" depart="75.78" from="D0D1.80.00" to="left2A2.80.00" type="passenger"/>
    <trip id="255" depart="75.82" from="top1B4" to="A0left0" type="passenger"/>
    <trip id="256" depart="76.53" from="B4B3.80.00" to="C3D3.80.00" type="passenger"/>
    <trip id="257" depart="76.70" from="B4A4" to="A3B3" type="passenger"/>
    <trip id="258" depart="76.85" from="D4C4" to="A0bottom0" type="passenger"/>
    <trip id="259" depart="77.19" from="left3A3.80.00" to="B3C3" type="passenger"/>
    <trip id="260" depart="77.33" from="C4C3.80.00" to="D2D3" type="passenger"/>
    <trip id="261" depart="77.88" from="A4A3" to="B0bottom1" type="passenger"/>
    <trip id="262" depart="78.34" from="D2C2" to="C3D3.80.00" type="passenger"/>
    <trip id="263" depart="78.49" from="A0B0" to="A0B0" type="passenger"/>
    <trip id="264" depart="78.59" from="E2E3" to="top0A4.80.00" type="passenger"/>
    <trip id="265" depart="78.99" from="D3E3.80.00" to="C0C1" type="passenger"/>
    <trip id="266" depart="79.10" from="B3B4" to="C2C1.80.00" type="passenger"/>
    <trip id="267" depart="79.55" from="C1C0" to="left1A1.80.00" type="passenger"/>
    <trip id="268" depart="79.78" from="A3B3.80.00" to="D4top3" type="passenger"/>
    <trip id="269" depart="80.40" from="D2E2.80.00" to="A2A1" type="passenger"/>
    <trip id="270" depart="80.43" from="C3D3" to="B0C0" type="passenger"/>
    <trip id="271" depart="80.65" from="top3D4.80.00" to="B1B0.80.00" type="passenger"/>
    <trip id="272" depart="80.74" from="E2E1" to="A4A3.80.00" type="passenger"/>
    <trip id="273" depart="80.79" from="A4A3.80.00" to="E2D2" type="passenger"/>
    <trip id="274" depart="80.86" from="E3D3" to="C1B1" type="passenger"/>
    <trip id="275" depart="81.37" from="D2D1" to="left1A1.80.00" type="passenger"/>
    <trip id="276" depart="81.96" from="top0A4" to="E3E4" type="passenger"/>
    <trip id="277" depart="82.01" from="C1D1" to="B3C3.80.00" type="passenger"/>
    <trip id="278" depart="82.16" from="C2B2" to="A3A4.80.00" type="passenger"/>
    <trip id="279" depart="82.35" from="D1D0.80.00" to="D0D1" type="passenger"/>
    <trip id="280" depart="82.60" from="A0A1" to="left1A1.80.00" type="passenger"/>
    <trip id="281" depart="83.72" from="D3C3" to="C0D0.80.00" type="passenger"/>
    <trip id="282" depart="83.78" from="D0E0" to="D3E3.80.00" type="passenger"/>
    <trip id="283" depart="84.01" from="B1A1.80.00" to="B4B3.80.00" type="passenger"/>
    <trip id="284" depart="84.12" from="B2A2.80.00" to="B0A0" type="passenger"/>
    <trip id="285" depart="84.24" from="C2D2.80.00" to="E0D0.80.00" type="passenger"/>
    <trip id="286" depart="84.28" from="bottom3D0.80.00" to="A3B3" type="passenger"/>
    <trip id="287" depart="84.48" from="D0C0.80.00" to="E1E2.80.00" type="passenger"/>
    <trip id="288" depart="84.50" from="C2D2" to="B0C0.80.00" type="passenger"/>
    <trip id="289" depart="84.53" from="C1D1.80.00" to="B0B1" type="passenger"/>
    <trip id="290" depart="84.55" from="D2E2" to="B4A4.80.00" type="passenger"/>
    <trip id="291" depart="84.85" from="D2D3.80.00" to="D0C0.80.00" type="passenger"/>
    <trip id="292" depart="85.20" from="B2C2.80.00" to="A1B1" type="passenger"/>
    <trip id="293" depart="85.26" from="C2B2.80.00" to="right3E3.80.00" type="passenger"/>
    <trip id="294" depart="85.73" from="B1B0.80.00" to="B4B3.80.00" type="passenger"/>
    <trip id="295" depart="86.46" from="B3A3.80.00" to="D1C1.80.00" type="passenger"/>
    <trip id="296" depart="87.02" from="top1B4" to="B1C1.80.00" type="passenger"/>
    <trip id="297" depart="87.60" from="D4D3.80.00" to="A2A3.80.00" type="passenger"/>
    <trip id="298" depart="87.61" from="B1C1.80.00" to="E3E4" type="passenger"/>
    <trip id="299" depart="87.64" from="right4E4.80.00" to="C2D2" type="passenger"/>
    <trip id="300" depart="87.86" from="right3E3" to="B3A3.80.00" type="passenger"/>
    <trip id="301" depart="87.94" from="B0A0.80.00" to="B1C1" type="passenger"/>
    <trip id="302" depart="88.10" from="right1E1.80.00" to="A3left3" type="passenger"/>
    <trip id="303" depart="88.86" from="right1E1" to="C4B4.80.00" type="passenger"/>
    <trip id="304" depart="89.85" from="C3B3" to="D1D0.80.00" type="passenger"/>
    <trip id="305" depart="90.03" from="left4A4" to="C3D3" type="passenger"/>
    <trip id="306" depart="90.11" from="A2A1" to="D2D3.80.00" type="passenger"/>
    <trip id="307" depart="90.20" from="E4E3.80.00" to="C4top2" type="passenger"/>
    <trip id="308" depart="90.62" from="left1A1.80.00" to="A2A3.80.00" type="passenger"/>
    <trip id="309" depart="90.65" from="A1A2.80.00" to="C2D2.80.00" type="passenger"/>
    <trip id="310" depart="90.78" from="D3D2.80.00" to="A2left2" type="passenger"/>
    <trip id="311" depart="90.84" from="left2A2" to="D1C1" type="passenger"/>
    <trip id="312" depart="91.05" from="B4B3" to="B1C1" type="passenger"/>
    <trip id="313" depart="91.25" from="B4B3" to="A3A2.80.00" type="passenger"/>
    <trip id="314" depart="91.47" from="B1C1.80.00" to="B2A2.80.00" type="passenger"/>
    <trip id="315" depart="91.48" from="D1D0.80.00" to="right1E1.80.00" type="passenger"/>
    <trip id="316" depart="91.86" from="B2B1" to="D4C4.80.00" type="passenger"/>
    <trip id="317" depart="91.94" from="bottom2C0" to="C2C3" type="passenger"/>
    <trip id="318" depart="92.11" from="left1A1.80.00" to="E4E3.80.00" type="passenger"/>
    <trip id="319" depart="92.63" from="D3D2" to="D2E2" type="passenger"/>
    <trip id="320" depart="92.69" from="C0D0.80.00" to="A4left4" type="passenger"/>
    <trip id="321" depart="92.77" from="D3D2.80.00" to="A4top0" type="passenger"/>
    <trip id="322" depart="92.84" from="C4B4" to="right4E4.80.00" type="passenger"/>
    <trip id="323" depart="93.00" from="B3C3.80.00" to="C0B0" type="passenger"/>
    <trip id="324" depart="93.22" from="D2D3" to="B2C2" type="passenger"/>
    <trip id="325" depart="93.39" from="A0A1.80.00" to="A3A4" type="passenger"/>
    <trip id="326" depart="93.54" from="C3C2.80.00" to="C3C4" type="passenger"/>
    <trip id="327" depart="93.65" from="top3D4" to="C4D4" type="passenger"/>
    <trip id="328" depart="94.58" from="C3D3" to="B1B0.80.00" type="passenger"/>
    <trip id="329" depart="94.93" from="E1E2.80.00" to="E4right4" type="passenger"/>
    <trip id="330" depart="95.42" from="D3E3.80.00" to="E1D1" type="passenger"/>
    <trip id="331" depart="96.02" from="right2E2" to="D2E2.80.00" type="passenger"/>
    <trip id="332" depart="96.16" from="D4E4.80.00" to="B2A2.80.00" type="passenger"/>
    <trip id="333" depart="96.41" from="A1A0" to="left3A3.80.00" type="passenger"/>
    <trip id="334" depart="96.90" from="E1E0.80.00" to="C1B1" type="passenger"/>
    <trip id="335" depart="96.90" from="B3B4.80.00" to="A0bottom0" type="passenger"/>
    <trip id="336" depart="97.18" from="C1C2" to="D2D1.80.00" type="passenger"/>
    <trip id="337" depart="97.53" from="D2D3.80.00" to="top3D4.80.00" type="passenger"/>
    <trip id="338" depart="97.66" from="B0C0.80.00" to="E3E2.80.00" type="passenger"/>
    <trip id="339" depart="98.86" from="bottom2C0" to="E2right2" type="passenger"/>
    <trip id="340" depart="99.31" from="C3B3" to="A3left3" type="passenger"/>
    <trip id="341" depart="99.38" from="A3A2.80.00" to="C0B0" type="passenger"/>
    <trip id="342" depart="100.00" from="D2C2.80.00" to="D3D4" type="passenger"/>
    <trip id="343" depart="100.04" from="A1A2" to="C0bottom2" type="passenger"/>
    <trip id="344" depart="100.40" from="E2E3.80.00" to="A0A1.80.00" type="passenger"/>
    <trip id="345" depart="100.54" from="B2B3" to="B2B1.80.00" type="passenger"/>
    <trip id="346" depart="100.87" from="E1E2.80.00" to="C1B1" type="passenger"/>
    <trip id="347" depart="101.02" from="A0A1.80.00" to="C0C1" type="passenger"/>
    <trip id="348" depart="101.34" from="B0C0" to="A2A1" type="passenger"/>
    <trip id="349" depart="101.46" from="C0D0" to="E4E3.80.00" type="passenger"/>
    <trip id="350" depart="102.50" from="C3B3.80.00" to="C2B2.80.00" type="passenger"/>
    <trip id="351" depart="102.74" from="B3A3.80.00" to="E4D4.80.00" type="passenger"/>
    <trip id="352" depart="103.99" from="A1A0.80.00" to="A2B2" type="passenger"/>
    <trip id="353" depart="104.66" from="B0B1.80.00" to="A2A1.80.00" type="passenger"/>
    <trip id="354" depart="104.74" from="A1B1.80.00" to="B4A4.80.00" type="passenger"/>
    <trip id="355" depart="104.76" from="C1D1.80.00" to="C3D3.80.00" type="passenger"/>