<?xml version="1.0" encoding="UTF-8"?>

<!-- generated on 2023-04-26 16:56:49.307937 by randomTrips.py UNKNOWN
<configuration>
    <begin value="0"/>
    <end value="900"/>
    <insertion-rate value="8000.0"/>
    <net-file value="/home/franky3er/Documents/code/HieraGLight/scenarios/grid/1x1-500m/train/37-scenario/network.net.xml"/>
    <random value="True"/>
    <random-depart value="True"/>
    <route-file value="/home/franky3er/Documents/code/HieraGLight/scenarios/grid/1x1-500m/train/37-scenario/routes.rou.xml"/>
    <seed value="37"/>
    <output-trip-file value="/home/franky3er/Documents/code/HieraGLight/scenarios/grid/1x1-500m/train/37-scenario/trips.trips.xml"/>
    <vehicle-class value="passenger"/>
</configuration>
-->

<routes xmlns:xsi="http://www.w3.org/2001/XMLSchema-instance" xsi:noNamespaceSchemaLocation="http://sumo.dlr.de/xsd/routes_file.xsd">
    <vType id="passenger" vClass="passenger"/>
    <trip id="0" depart="0.70" from="bottom0A0.250.00" to="A0right0" type="passenger"/>
    <trip id="1" depart="0.80" from="right0A0.250.00" to="A0top0" type="passenger"/>
    <trip id="2" depart="1.10" from="left0A0.250.00" to="top0A0.250.00" type="passenger"/>
    <trip id="3" depart="1.15" from="left0A0" to="bottom0A0.250.00" type="passenger"/>
    <trip id="4" depart="1.60" from="bottom0A0" to="A0top0" type="passenger"/>
    <trip id="5" depart="2.95" from="right0A0.250.00" to="left0A0.250.00" type="passenger"/>
    <trip id="6" depart="3.00" from="top0A0" to="bottom0A0.250.00" type="passenger"/>
    <trip id="7" depart="3.35" from="left0A0.250.00" to="top0A0.250.00" type="passenger"/>
    <trip id="8" depart="3.40" from="left0A0" to="A0top0" type="passenger"/>
    <trip id="9" depart="3.60" from="right0A0" to="left0A0.250.00" type="passenger"/>
    <trip id="10" depart="4.20" from="bottom0A0" to="A0top0" type="passenger"/>
    <trip id="11" depart="5.10" from="right0A0" to="A0right0" type="passenger"/>
    <trip id="12" depart="5.20" from="top0A0" to="bottom0A0.250.00" type="passenger"/>
    <trip id="13" depart="5.50" from="top0A0" to="bottom0A0.250.00" type="passenger"/>
    <trip id="14" depart="6.35" from="top0A0.250.00" to="top0A0.250.00" type="passenger"/>
    <trip id="15" depart="6.65" from="left0A0" to="A0left0" type="passenger"/>
    <trip id="16" depart="6.80" from="bottom0A0.250.00" to="A0left0" type="passenger"/>
    <trip id="17" depart="7.45" from="left0A0.250.00" to="top0A0.250.00" type="passenger"/>
    <trip id="18" depart="7.80" from="bottom0A0" to="A0left0" type="passenger"/>
    <trip id="19" depart="7.95" from="left0A0.250.00" to="A0top0" type="passenger"/>
    <trip id="20" depart="8.25" from="right0A0" to="bottom0A0.250.00" type="passenger"/>
    <trip id="21" depart="8.85" from="right0A0.250.00" to="A0left0" type="passenger"/>
    <trip id="22" depart="8.85" from="left0A0" to="A0left0" type="passenger"/>
    <trip id="23" depart="8.95" from="left0A0" to="A0left0" type="passenger"/>
    <trip id="24" depart="9.50" from="left0A0" to="A0right0" type="passenger"/>
    <trip id="25" depart="9.60" from="left0A0.250.00" to="right0A0.250.00" type="passenger"/>
    <trip id="26" depart="10.35" from="top0A0.250.00" to="left0A0.250.00" type="passenger"/>
    <trip id="27" depart="10.60" from="left0A0" to="A0right0" type="passenger"/>
    <trip id="28" depart="11.35" from="top0A0.250.00" to="left0A0.250.00" type="passenger"/>
    <trip id="29" depart="11.45" from="left0A0" to="bottom0A0.250.00" type="passenger"/>
    <trip id="30" depart="11.75" from="bottom0A0" to="top0A0.250.00" type="passenger"/>
    <trip id="31" depart="11.75" from="right0A0" to="top0A0.250.00" type="passenger"/>
    <trip id="32" depart="12.20" from="top0A0.250.00" to="right0A0.250.00" type="passenger"/>
    <trip id="33" depart="12.20" from="top0A0.250.00" to="bottom0A0.250.00" type="passenger"/>
    <trip id="34" depart="12.50" from="left0A0" to="bottom0A0.250.00" type="passenger"/>
    <trip id="35" depart="12.55" from="left0A0" to="A0left0" type="passenger"/>
    <trip id="36" depart="13.10" from="top0A0.250.00" to="bottom0A0.250.00" type="passenger"/>
    <trip id="37" depart="13.25" from="top0A0" to="A0top0" type="passenger"/>
    <trip id="38" depart="13.25" from="left0A0" to="A0top0" type="passenger"/>
    <trip id="39" depart="14.45" from="top0A0.250.00" to="right0A0.250.00" type="passenger"/>
    <trip id="40" depart="14.85" from="bottom0A0.250.00" to="A0bottom0" type="passenger"/>
    <trip id="41" depart="16.20" from="bottom0A0.250.00" to="A0left0" type="passenger"/>
    <trip id="42" depart="17.15" from="right0A0.250.00" to="A0right0" type="passenger"/>
    <trip id="43" depart="17.50" from="top0A0" to="bottom0A0.250.00" type="passenger"/>
    <trip id="44" depart="17.75" from="bottom0A0.250.00" to="A0left0" type="passenger"/>
    <trip id="45" depart="18.30" from="left0A0.250.00" to="A0bottom0" type="passenger"/>
    <trip id="46" depart="18.55" from="bottom0A0.250.00" to="A0top0" type="passenger"/>
    <trip id="47" depart="18.60" from="top0A0.250.00" to="bottom0A0.250.00" type="passenger"/>
    <trip id="48" depart="18.65" from="bottom0A0" to="bottom0A0.250.00" type="passenger"/>
    <trip id="49" depart="18.95" from="top0A0" to="A0left0" type="passenger"/>
    <trip id="50" depart="18.95" from="left0A0.250.00" to="right0A0.250.00" type="passenger"/>
    <trip id="51" depart="19.10" from="left0A0.250.00" to="A0right0" type="passenger"/>
    <trip id="52" depart="19.20" from="top0A0.250.00" to="right0A0.250.00" type="passenger"/>
    <trip id="53" depart="19.75" from="left0A0" to="top0A0.250.00" type="passenger"/>
    <trip id="54" depart="20.65" from="right0A0.250.00" to="A0left0" type="passenger"/>
    <trip id="55" depart="20.85" from="top0A0.250.00" to="A0top0" type="passenger"/>
    <trip id="56" depart="21.10" from="left0A0" to="A0left0" type="passenger"/>
    <trip id="57" depart="21.10" from="top0A0.250.00" to="top0A0.250.00" type="passenger"/>
    <trip id="58" depart="21.50" from="right0A0" to="A0right0" type="passenger"/>
    <trip id="59" depart="22.85" from="bottom0A0.250.00" to="A0top0" type="passenger"/>
    <trip id="60" depart="23.70" from="bottom0A0.250.00" to="A0right0" type="passenger"/>
    <trip id="61" depart="23.90" from="right0A0.250.00" to="right0A0.250.00" type="passenger"/>
    <trip id="62" depart="23.90" from="bottom0A0.250.00" to="A0top0" type="passenger"/>
    <trip id="63" depart="24.05" from="left0A0" to="right0A0.250.00" type="passenger"/>
    <trip id="64" depart="24.10" from="left0A0.250.00" to="bottom0A0.250.00" type="passenger"/>
    <trip id="65" depart="24.35" from="top0A0" to="A0top0" type="passenger"/>
    <trip id="66" depart="25.35" from="left0A0.250.00" to="right0A0.250.00" type="passenger"/>
    <trip id="67" depart="25.60" from="top0A0.250.00" to="right0A0.250.00" type="passenger"/>
    <trip id="68" depart="25.80" from="left0A0.250.00" to="bottom0A0.250.00" type="passenger"/>
    <trip id="69" depart="25.85" from="left0A0.250.00" to="A0top0" type="passenger"/>
    <trip id="70" depart="26.00" from="bottom0A0.250.00" to="left0A0.250.00" type="passenger"/>
    <trip id="71" depart="26.30" from="right0A0.250.00" to="A0top0" type="passenger"/>
    <trip id="72" depart="26.65" from="top0A0.250.00" to="left0A0.250.00" type="passenger"/>
    <trip id="73" depart="26.80" from="bottom0A0" to="right0A0.250.00" type="passenger"/>
    <trip id="74" depart="27.70" from="right0A0" to="A0top0" type="passenger"/>
    <trip id="75" depart="27.95" from="bottom0A0.250.00" to="top0A0.250.00" type="passenger"/>
    <trip id="76" depart="28.65" from="left0A0.250.00" to="left0A0.250.00" type="passenger"/>
    <trip id="77" depart="28.90" from="left0A0.250.00" to="bottom0A0.250.00" type="passenger"/>
    <trip id="78" depart="29.50" from="top0A0" to="left0A0.250.00" type="passenger"/>
    <trip id="79" depart="30.05" from="top0A0" to="top0A0.250.00" type="passenger"/>
    <trip id="80" depart="30.45" from="left0A0" to="bottom0A0.250.00" type="passenger"/>
    <trip id="81" depart="30.95" from="top0A0" to="right0A0.250.00" type="passenger"/>
    <trip id="82" depart="31.00" from="top0A0" to="A0left0" type="passenger"/>
    <trip id="83" depart="32.05" from="left0A0.250.00" to="A0top0" type="passenger"/>
    <trip id="84" depart="32.15" from="bottom0A0" to="bottom0A0.250.00" type="passenger"/>
    <trip id="85" depart="32.70" from="bottom0A0.250.00" to="bottom0A0.250.00" type="passenger"/>
    <trip id="86" depart="32.95" from="top0A0.250.00" to="left0A0.250.00" type="passenger"/>
    <trip id="87" depart="33.05" from="bottom0A0" to="top0A0.250.00" type="passenger"/>
    <trip id="88" depart="33.25" from="bottom0A0" to="top0A0.250.00" type="passenger"/>
    <trip id="89" depart="33.30" from="bottom0A0" to="A0left0" type="passenger"/>
    <trip id="90" depart="33.30" from="top0A0" to="A0left0" type="passenger"/>
    <trip id="91" depart="33.75" from="left0A0" to="A0left0" type="passenger"/>
    <trip id="92" depart="35.65" from="top0A0.250.00" to="A0top0" type="passenger"/>
    <trip id="93" depart="36.40" from="left0A0" to="A0right0" type="passenger"/>
    <trip id="94" depart="36.65" from="left0A0" to="bottom0A0.250.00" type="passenger"/>
    <trip id="95" depart="37.00" from="left0A0" to="left0A0.250.00" type="passenger"/>
    <trip id="96" depart="38.10" from="right0A0" to="bottom0A0.250.00" type="passenger"/>
    <trip id="97" depart="38.40" from="left0A0" to="right0A0.250.00" type="passenger"/>
    <trip id="98" depart="38.75" from="left0A0.250.00" to="bottom0A0.250.00" type="passenger"/>
    <trip id="99" depart="39.65" from="top0A0.250.00" to="A0top0" type="passenger"/>
    <trip id="100" depart="39.85" from="bottom0A0.250.00" to="bottom0A0.250.00" type="passenger"/>
    <trip id="101" depart="39.95" from="right0A0" to="left0A0.250.00" type="passenger"/>
    <trip id="102" depart="39.95" from="top0A0" to="bottom0A0.250.00" type="passenger"/>
    <trip id="103" depart="40.00" from="left0A0.250.00" to="A0top0" type="passenger"/>
    <trip id="104" depart="40.45" from="top0A0" to="left0A0.250.00" type="passenger"/>
    <trip id="105" depart="40.65" from="left0A0.250.00" to="A0right0" type="passenger"/>
    <trip id="106" depart="41.25" from="left0A0.250.00" to="A0left0" type="passenger"/>
    <trip id="107" depart="41.35" from="left0A0.250.00" to="A0left0" type="passenger"/>
    <trip id="108" depart="41.50" from="right0A0.250.00" to="A0bottom0" type="passenger"/>
    <trip id="109" depart="41.55" from="top0A0" to="top0A0.250.00" type="passenger"/>
    <trip id="110" depart="41.60" from="right0A0" to="top0A0.250.00" type="passenger"/>
    <trip id="111" depart="41.95" from="top0A0.250.00" to="A0top0" type="passenger"/>
    <trip id="112" depart="42.00" from="right0A0.250.00" to="top0A0.250.00" type="passenger"/>
    <trip id="113" depart="42.25" from="right0A0" to="bottom0A0.250.00" type="passenger"/>
    <trip id="114" depart="42.30" from="top0A0" to="top0A0.250.00" type="passenger"/>
    <trip id="115" depart="42.80" from="bottom0A0" to="A0bottom0" type="passenger"/>
    <trip id="116" depart="42.90" from="right0A0" to="A0bottom0" type="passenger"/>
    <trip id="117" depart="43.05" from="right0A0.250.00" to="A0left0" type="passenger"/>
    <trip id="118" depart="43.40" from="left0A0" to="top0A0.250.00" type="passenger"/>
    <trip id="119" depart="43.70" from="left0A0.250.00" to="left0A0.250.00" type="passenger"/>
    <trip id="120" depart="44.05" from="right0A0" to="A0bottom0" type="passenger"/>
    <trip id="121" depart="44.15" from="top0A0" to="right0A0.250.00" type="passenger"/>
    <trip id="122" depart="44.45" from="left0A0.250.00" to="A0top0" type="passenger"/>
    <trip id="123" depart="46.70" from="right0A0.250.00" to="A0left0" type="passenger"/>
    <trip id="124" depart="46.85" from="left0A0.250.00" to="left0A0.250.00" type="passenger"/>
    <trip id="125" depart="47.00" from="left0A0.250.00" to="left0A0.250.00" type="passenger"/>
    <trip id="126" depart="47.25" from="right0A0" to="A0left0" type="passenger"/>
    <trip id="127" depart="47.65" from="right0A0" to="A0left0" type="passenger"/>
    <trip id="128" depart="47.80" from="left0A0" to="bottom0A0.250.00" type="passenger"/>
    <trip id="129" depart="48.90" from="top0A0" to="A0left0" type="passenger"/>
    <trip id="130" depart="49.55" from="bottom0A0" to="left0A0.250.00" type="passenger"/>
    <trip id="131" depart="49.65" from="left0A0.250.00" to="right0A0.250.00" type="passenger"/>
    <trip id="132" depart="49.95" from="left0A0.250.00" to="right0A0.250.00" type="passenger"/>
    <trip id="133" depart="50.35" from="top0A0" to="A0bottom0" type="passenger"/>
    <trip id="134" depart="50.60" from="left0A0.250.00" to="left0A0.250.00" type="passenger"/>
    <trip id="135" depart="50.75" from="top0A0" to="A0top0" type="passenger"/>
    <trip id="136" depart="52.00" from="right0A0" to="bottom0A0.250.00" type="passenger"/>
    <trip id="137" depart="53.05" from="bottom0A0" to="A0bottom0" type="passenger"/>
    <trip id="138" depart="53.20" from="right0A0.250.00" to="left0A0.250.00" type="passenger"/>
    <trip id="139" depart="54.90" from="top0A0.250.00" to="A0right0" type="passenger"/>
    <trip id="140" depart="56.15" from="bottom0A0.250.00" to="left0A0.250.00" type="passenger"/>
    <trip id="141" depart="56.25" from="right0A0" to="right0A0.250.00" type="passenger"/>
    <trip id="142" depart="56.45" from="right0A0" to="left0A0.250.00" type="passenger"/>
    <trip id="143" depart="56.60" from="bottom0A0.250.00" to="A0bottom0" type="passenger"/>
    <trip id="144" depart="56.90" from="left0A0.250.00" to="A0left0" type="passenger"/>
    <trip id="145" depart="58.90" from="top0A0" to="bottom0A0.250.00" type="passenger"/>
    <trip id="146" depart="59.35" from="left0A0" to="bottom0A0.250.00" type="passenger"/>
    <trip id="147" depart="60.05" from="bottom0A0" to="A0bottom0" type="passenger"/>
    <trip id="148" depart="60.50" from="bottom0A0" to="right0A0.250.00" type="passenger"/>
    <trip id="149" depart="60.60" from="left0A0" to="right0A0.250.00" type="passenger"/>
    <trip id="150" depart="60.65" from="top0A0.250.00" to="left0A0.250.00" type="passenger"/>
    <trip id="151" depart="61.75" from="top0A0" to="A0bottom0" type="passenger"/>
    <trip id="152" depart="62.15" from="bottom0A0.250.00" to="A0right0" type="passenger"/>
    <trip id="153" depart="62.20" from="left0A0" to="A0right0" type="passenger"/>
    <trip id="154" depart="62.30" from="top0A0.250.00" to="A0right0" type="passenger"/>
    <trip id="155" depart="62.35" from="right0A0.250.00" to="A0top0" type="passenger"/>
    <trip id="156" depart="62.45" from="bottom0A0.250.00" to="A0bottom0" type="passenger"/>
    <trip id="157" depart="62.70" from="left0A0" to="right0A0.250.00" type="passenger"/>
    <trip id="158" depart="63.05" from="left0A0" to="right0A0.250.00" type="passenger"/>
    <trip id="159" depart="63.40" from="left0A0" to="A0top0" type="passenger"/>
    <trip id="160" depart="64.20" from="right0A0" to="bottom0A0.250.00" type="passenger"/>
    <trip id="161" depart="64.40" from="left0A0" to="A0bottom0" type="passenger"/>
    <trip id="162" depart="64.45" from="top0A0.250.00" to="A0bottom0" type="passenger"/>
    <trip id="163" depart="64.90" from="bottom0A0.250.00" to="A0bottom0" type="passenger"/>
    <trip id="164" depart="65.05" from="bottom0A0.250.00" to="bottom0A0.250.00" type="passenger"/>
    <trip id="165" depart="65.75" from="right0A0" to="A0right0" type="passenger"/>
    <trip id="166" depart="65.80" from="right0A0.250.00" to="A0top0" type="passenger"/>
    <trip id="167" depart="66.10" from="bottom0A0" to="A0top0" type="passenger"/>
    <trip id="168" depart="66.55" from="top0A0.250.00" to="right0A0.250.00" type="passenger"/>
    <trip id="169" depart="66.60" from="bottom0A0" to="A0top0" type="passenger"/>
    <trip id="170" depart="66.80" from="left0A0" to="top0A0.250.00" type="passenger"/>
    <trip id="171" depart="67.30" from="right0A0" to="A0left0" type="passenger"/>
    <trip id="172" depart="68.10" from="right0A0" to="A0right0" type="passenger"/>
    <trip id="173" depart="68.25" from="bottom0A0" to="A0left0" type="passenger"/>
    <trip id="174" depart="68.70" from="right0A0.250.00" to="A0bottom0" type="passenger"/>
    <trip id="175" depart="68.95" from="right0A0.250.00" to="A0top0" type="passenger"/>
    <trip id="176" depart="69.15" from="left0A0.250.00" to="A0bottom0" type="passenger"/>
    <trip id="177" depart="69.20" from="bottom0A0" to="A0bottom0" type="passenger"/>
    <trip id="178" depart="69.45" from="bottom0A0" to="left0A0.250.00" type="passenger"/>
    <trip id="179" depart="69.75" from="left0A0.250.00" to="A0left0" type="passenger"/>
    <trip id="180" depart="69.95" from="top0A0" to="A0top0" type="passenger"/>
    <trip id="181" depart="70.00" from="left0A0.250.00" to="A0left0" type="passenger"/>
    <trip id="182" depart="70.20" from="right0A0.250.00" to="top0A0.250.00" type="passenger"/>
    <trip id="183" depart="71.35" from="right0A0" to="right0A0.250.00" type="passenger"/>
    <trip id="184" depart="71.85" from="top0A0.250.00" to="A0right0" type="passenger"/>
    <trip id="185" depart="72.10" from="right0A0.250.00" to="top0A0.250.00" type="passenger"/>
    <trip id="186" depart="72.15" from="top0A0.250.00" to="top0A0.250.00" type="passenger"/>
    <trip id="187" depart="73.50" from="bottom0A0" to="top0A0.250.00" type="passenger"/>
    <trip id="188" depart="73.70" from="top0A0.250.00" to="top0A0.250.00" type="passenger"/>
    <trip id="189" depart="73.70" from="right0A0" to="top0A0.250.00" type="passenger"/>
    <trip id="190" depart="74.55" from="left0A0" to="bottom0A0.250.00" type="passenger"/>
    <trip id="191" depart="74.60" from="bottom0A0.250.00" to="A0top0" type="passenger"/>
    <trip id="192" depart="75.55" from="bottom0A0" to="bottom0A0.250.00" type="passenger"/>
    <trip id="193" depart="77.10" from="top0A0" to="A0right0" type="passenger"/>
    <trip id="194" depart="77.70" from="right0A0.250.00" to="A0top0" type="passenger"/>
    <trip id="195" depart="78.60" from="right0A0.250.00" to="left0A0.250.00" type="passenger"/>
    <trip id="196" depart="80.05" from="right0A0" to="bottom0A0.250.00" type="passenger"/>
    <trip id="197" depart="80.05" from="left0A0" to="A0top0" type="passenger"/>
    <trip id="198" depart="82.25" from="bottom0A0.250.00" to="left0A0.250.00" type="passenger"/>
    <trip id="199" depart="82.50" from="top0A0.250.00" to="top0A0.250.00" type="passenger"/>
    <trip id="200" depart="83.45" from="right0A0" to="A0bottom0" type="passenger"/>
    <trip id="201" depart="83.55" from="left0A0.250.00" to="right0A0.250.00" type="passenger"/>
    <trip id="202" depart="83.80" from="top0A0" to="right0A0.250.00" type="passenger"/>
    <trip id="203" depart="84.05" from="left0A0.250.00" to="A0bottom0" type="passenger"/>
    <trip id="204" depart="85.30" from="left0A0.250.00" to="A0left0" type="passenger"/>
    <trip id="205" depart="85.90" from="right0A0.250.00" to="A0top0" type="passenger"/>
    <trip id="206" depart="86.45" from="top0A0.250.00" to="bottom0A0.250.00" type="passenger"/>
    <trip id="207" depart="86.55" from="bottom0A0" to="A0right0" type="passenger"/>
    <trip id="208" depart="87.10" from="right0A0" to="A0bottom0" type="passenger"/>
    <trip id="209" depart="88.45" from="bottom0A0" to="bottom0A0.250.00" type="passenger"/>
    <trip id="210" depart="89.00" from="right0A0.250.00" to="A0left0" type="passenger"/>
    <trip id="211" depart="89.10" from="left0A0" to="A0bottom0" type="passenger"/>
    <trip id="212" depart="89.45" from="right0A0" to="bottom0A0.250.00" type="passenger"/>
    <trip id="213" depart="89.55" from="right0A0.250.00" to="left0A0.250.00" type="passenger"/>
    <trip id="214" depart="89.80" from="left0A0.250.00" to="A0bottom0" type="passenger"/>
    <trip id="215" depart="91.30" from="right0A0.250.00" to="bottom0A0.250.00" type="passenger"/>
    <trip id="216" depart="91.30" from="left0A0.250.00" to="A0left0" type="passenger"/>
    <trip id="217" depart="91.95" from="right0A0.250.00" to="A0bottom0" type="passenger"/>
    <trip id="218" depart="91.95" from="top0A0" to="top0A0.250.00" type="passenger"/>
    <trip id="219" depart="92.35" from="top0A0.250.00" to="left0A0.250.00" type="passenger"/>
    <trip id="220" depart="93.15" from="bottom0A0" to="A0top0" type="passenger"/>
    <trip id="221" depart="93.20" from="bottom0A0" to="A0top0" type="passenger"/>
    <trip id="222" depart="93.50" from="bottom0A0.250.00" to="A0right0" type="passenger"/>
    <trip id="223" depart="93.70" from="left0A0" to="A0top0" type="passenger"/>
    <trip id="224" depart="93.75" from="left0A0.250.00" to="left0A0.250.00" type="passenger"/>
    <trip id="225" depart="93.75" from="bottom0A0" to="bottom0A0.250.00" type="passenger"/>
    <trip id="226" depart="93.80" from="left0A0" to="left0A0.250.00" type="passenger"/>
    <trip id="227" depart="93.95" from="bottom0A0.250.00" to="A0right0" type="passenger"/>
    <trip id="228" depart="94.25" from="left0A0" to="A0top0" type="passenger"/>
    <trip id="229" depart="94.35" from="bottom0A0" to="A0top0" type="passenger"/>
    <trip id="230" depart="94.40" from="right0A0.250.00" to="right0A0.250.00" type="passenger"/>
    <trip id="231" depart="95.15" from="top0A0.250.00" to="left0A0.250.00" type="passenger"/>
    <trip id="232" depart="95.85" from="right0A0.250.00" to="A0left0" type="passenger"/>
    <trip id="233" depart="95.85" from="top0A0" to="top0A0.250.00" type="passenger"/>
    <trip id="234" depart="95.85" from="top0A0.250.00" to="left0A0.250.00" type="passenger"/>
    <trip id="235" depart="96.55" from="top0A0.250.00" to="left0A0.250.00" type="passenger"/>
    <trip id="236" depart="97.10" from="right0A0.250.00" to="A0bottom0" type="passenger"/>
    <trip id="237" depart="97.55" from="bottom0A0" to="A0left0" type="passenger"/>
    <trip id="238" depart="97.75" from="top0A0" to="bottom0A0.250.00" type="passenger"/>
    <trip id="239" depart="98.00" from="top0A0" to="left0A0.250.00" type="passenger"/>
    <trip id="240" depart="98.15" from="top0A0" to="A0right0" type="passenger"/>
    <trip id="241" depart="98.30" from="top0A0" to="top0A0.250.00" type="passenger"/>
    <trip id="242" depart="98.60" from="right0A0.250.00" to="bottom0A0.250.00" type="passenger"/>
    <trip id="243" depart="98.70" from="left0A0" to="top0A0.250.00" type="passenger"/>
    <trip id="244" depart="98.90" from="right0A0" to="right0A0.250.00" type="passenger"/>
    <trip id="245" depart="100.65" from="right0A0.250.00" to="A0bottom0" type="passenger"/>
    <trip id="246" depart="101.00" from="right0A0.250.00" to="right0A0.250.00" type="passenger"/>
    <trip id="247" depart="101.65" from="left0A0" to="left0A0.250.00" type="passenger"/>
    <trip id="248" depart="102.70" from="top0A0" to="A0left0" type="passenger"/>
    <trip id="249" depart="102.90" from="right0A0" to="A0left0" type="passenger"/>
    <trip id="250" depart="103.10" from="right0A0" to="left0A0.250.00" type="passenger"/>
    <trip id="251" depart="103.95" from="bottom0A0.250.00" to="A0bottom0" type="passenger"/>
    <trip id="252" depart="104.10" from="right0A0.250.00" to="top0A0.250.00" type="passenger"/>
    <trip id="253" depart="104.25" from="right0A0.250.00" to="A0top0" type="passenger"/>
    <trip id="254" depart="104.65" from="top0A0.250.00" to="A0right0" type="passenger"/>
    <trip id="255" depart="106.85" from="left0A0" to="top0A0.250.00" type="passenger"/>
    <trip id="256" depart="107.15" from="bottom0A0.250.00" to="right0A0.250.00" type="passenger"/>
    <trip id="257" depart="107.30" from="right0A0.250.00" to="top0A0.250.00" type="passenger"/>
    <trip id="258" depart="107.85" from="right0A0.250.00" to="top0A0.250.00" type="passenger"/>
    <trip id="259" depart="108.15" from="top0A0.250.00" to="A0right0" type="passenger"/>
    <trip id="260" depart="108.80" from="bottom0A0.250.00" to="bottom0A0.250.00" type="passenger"/>
    <trip id="261" depart="110.05" from="left0A0" to="A0left0" type="passenger"/>
    <trip id="262" depart="111.45" from="top0A0" to="bottom0A0.250.00" type="passenger"/>
    <trip id="263" depart="112.30" from="left0A0.250.00" to="A0top0" type="passenger"/>
    <trip id="264" depart="114.20" from="bottom0A0" to="A0top0" type="passenger"/>
    <trip id="265" depart="114.30" from="top0A0.250.00" to="left0A0.250.00" type="passenger"/>
    <trip id="266" depart="114.35" from="bottom0A0.250.00" to="top0A0.250.00" type="passenger"/>
    <trip id="267" depart="114.95" from="top0A0.250.00" to="A0top0" type="passenger"/>
    <trip id="268" depart="116.00" from="right0A0" to="A0right0" type="passenger"/>
    <trip id="269" depart="116.30" from="left0A0" to="A0left0" type="passenger"/>
    <trip id="270" depart="119.85" from="right0A0.250.00" to="top0A0.250.00" type="passenger"/>
    <trip id="271" depart="119.85" from="left0A0" to="left0A0.250.00" type="passenger"/>
    <trip id="272" depart="119.90" from="right0A0" to="bottom0A0.250.00" type="passenger"/>
    <trip id="273" depart="120.70" from="left0A0.250.00" to="bottom0A0.250.00" type="passenger"/>
    <trip id="274" depart="120.70" from="bottom0A0.250.00" to="A0bottom0" type="passenger"/>
    <trip id="275" depart="121.05" from="top0A0" to="A0bottom0" type="passenger"/>
    <trip id="276" depart="121.60" from="top0A0.250.00" to="top0A0.250.00" type="passenger"/>
    <trip id="277" depart="123.45" from="left0A0.250.00" to="top0A0.250.00" type="passenger"/>
    <trip id="278" depart="123.75" from="left0A0.250.00" to="top0A0.250.00" type="passenger"/>
    <trip id="279" depart="123.75" from="bottom0A0.250.00" to="A0right0" type="passenger"/>
    <trip id="280" depart="123.85" from="right0A0.250.00" to="A0top0" type="passenger"/>
    <trip id="281" depart="124.15" from="top0A0.250.00" to="left0A0.250.00" type="passenger"/>
    <trip id="282" depart="124.80" from="right0A0" to="A0top0" type="passenger"/>
    <trip id="283" depart="125.10" from="bottom0A0.250.00" to="A0right0" type="passenger"/>
    <trip id="284" depart="125.50" from="right0A0.250.00" to="A0top0" type="passenger"/>
    <trip id="285" depart="126.50" from="top0A0.250.00" to="top0A0.250.00" type="passenger"/>
    <trip id="286" depart="126.50" from="right0A0" to="bottom0A0.250.00" type="passenger"/>
    <trip id="287" depart="126.55" from="top0A0.250.00" to="top0A0.250.00" type="passenger"/>
    <trip id="288" depart="126.95" from="right0A0.250.00" to="A0right0" type="passenger"/>
    <trip id="289" depart="127.20" from="bottom0A0.250.00" to="top0A0.250.00" type="passenger"/>
    <trip id="290" depart="127.35" from="left0A0" to="A0top0" type="passenger"/>
    <trip id="291" depart="128.10" from="right0A0.250.00" to="top0A0.250.00" type="passenger"/>
    <trip id="292" depart="128.40" from="top0A0.250.00" to="A0left0" type="passenger"/>
    <trip id="293" depart="128.65" from="top0A0.250.00" to="A0right0" type="passenger"/>
    <trip id="294" depart="129.30" from="left0A0.250.00" to="A0right0" type="passenger"/>
    <trip id="295" depart="129.35" from="left0A0.250.00" to="A0top0" type="passenger"/>
    <trip id="296" depart="130.65" from="right0A0.250.00" to="bottom0A0.250.00" type="passenger"/>
    <trip id="297" depart="130.90" from="top0A0.250.00" to="A0left0" type="passenger"/>
    <trip id="298" depart="131.05" from="right0A0" to="left0A0.250.00" type="passenger"/>
    <trip id="299" depart="131.30" from="left0A0" to="left0A0.250.00" type="passenger"/>
    <trip id="300" depart="131.30" from="left0A0" to="A0right0" type="passenger"/>
    <trip id="301" depart="132.50" from="top0A0" to="A0bottom0" type="passenger"/>
    <trip id="302" depart="133.85" from="top0A0.250.00" to="A0top0" type="passenger"/>
    <trip id="303" depart="134.95" from="top0A0" to="bottom0A0.250.00" type="passenger"/>
    <trip id="304" depart="136.15" from="right0A0" to="bottom0A0.250.00" type="passenger"/>
    <trip id="305" depart="136.20" from="left0A0" to="A0right0" type="passenger"/>
    <trip id="306" depart="136.50" from="top0A0" to="A0left0" type="passenger"/>
    <trip id="307" depart="137.85" from="bottom0A0" to="A0bottom0" type="passenger"/>
    <trip id="308" depart="138.25" from="left0A0.250.00" to="top0A0.250.00" type="passenger"/>
    <trip id="309" depart="138.25" from="top0A0" to="A0right0" type="passenger"/>
    <trip id="310" depart="138.35" from="right0A0" to="right0A0.250.00" type="passenger"/>
    <trip id="311" depart="138.90" from="right0A0.250.00" to="A0left0" type="passenger"/>
    <trip id="312" depart="138.95" from="left0A0" to="left0A0.250.00" type="passenger"/>
    <trip id="313" depart="139.20" from="right0A0" to="left0A0.250.00" type="passenger"/>
    <trip id="314" depart="139.80" from="bottom0A0.250.00" to="left0A0.250.00" type="passenger"/>
    <trip id="315" depart="139.85" from="left0A0" to="right0A0.250.00" type="passenger"/>
    <trip id="316" depart="139.90" from="top0A0.250.00" to="left0A0.250.00" type="passenger"/>
    <trip id="317" depart="140.40" from="bottom0A0" to="A0right0" type="passenger"/>
    <trip id="318" depart="141.65" from="bottom0A0" to="A0bottom0" type="passenger"/>
    <trip id="319" depart="141.80" from="top0A0" to="left0A0.250.00" type="passenger"/>
    <trip id="320" depart="143.90" from="bottom0A0" to="A0top0" type="passenger"/>
    <trip id="321" depart="144.15" from="left0A0.250.00" to="bottom0A0.250.00" type="passenger"/>
    <trip id="322" depart="144.20" from="right0A0" to="right0A0.250.00" type="passenger"/>
    <trip id="323" depart="145.25" from="bottom0A0.250.00" to="A0left0" type="passenger"/>
    <trip id="324" depart="145.30" from="top0A0" to="top0A0.250.00" type="passenger"/>
    <trip id="325" depart="146.40" from="top0A0.250.00" to="A0right0" type="passenger"/>
    <trip id="326" depart="148.10" from="bottom0A0.250.00" to="bottom0A0.250.00" type="passenger"/>