<?xml version="1.0" encoding="UTF-8"?>

<!-- generated on 2023-04-26 16:56:50.200352 by randomTrips.py UNKNOWN
<configuration>
    <begin value="0"/>
    <end value="900"/>
    <insertion-rate value="8000.0"/>
    <net-file value="/home/franky3er/Documents/code/HieraGLight/scenarios/grid/1x1-500m/train/39-scenario/network.net.xml"/>
    <random value="True"/>
    <random-depart value="True"/>
    <route-file value="/home/franky3er/Documents/code/HieraGLight/scenarios/grid/1x1-500m/train/39-scenario/routes.rou.xml"/>
    <seed value="39"/>
    <output-trip-file value="/home/franky3er/Documents/code/HieraGLight/scenarios/grid/1x1-500m/train/39-scenario/trips.trips.xml"/>
    <vehicle-class value="passenger"/>
</configuration>
-->

<!-- generated on 2023-04-26 16:56:50 by Eclipse SUMO duarouter Version 1.16.0
<configuration xmlns:xsi="http://www.w3.org/2001/XMLSchema-instance" xsi:noNamespaceSchemaLocation="http://sumo.dlr.de/xsd/duarouterConfiguration.xsd">

    <input>
        <net-file value="/home/franky3er/Documents/code/HieraGLight/scenarios/grid/1x1-500m/train/39-scenario/network.net.xml"/>
        <route-files value="/home/franky3er/Documents/code/HieraGLight/scenarios/grid/1x1-500m/train/39-scenario/trips.trips.xml"/>
    </input>

    <output>
        <output-file value="/home/franky3er/Documents/code/HieraGLight/scenarios/grid/1x1-500m/train/39-scenario/routes.rou.xml"/>
        <alternatives-output value="NUL"/>
    </output>

    <time>
        <begin value="0"/>
        <end value="900"/>
    </time>

    <report>
        <no-warnings value="true"/>
        <ignore-errors value="true"/>
        <no-step-log value="true"/>
    </report>

</configuration>
-->

<routes xmlns:xsi="http://www.w3.org/2001/XMLSchema-instance" xsi:noNamespaceSchemaLocation="http://sumo.dlr.de/xsd/routes_file.xsd">
    <vType id="passenger" vClass="passenger"/>
    <vehicle id="1" type="passenger" depart="0.30">
        <route edges="bottom0A0.250.00 A0right0"/>
    </vehicle>
    <vehicle id="3" type="passenger" depart="1.35">
        <route edges="top0A0 top0A0.250.00 A0left0"/>
    </vehicle>
    <vehicle id="4" type="passenger" depart="1.55">
        <route edges="bottom0A0.250.00 A0left0"/>
    </vehicle>
    <vehicle id="5" type="passenger" depart="1.55">
        <route edges="left0A0.250.00 A0bottom0"/>
    </vehicle>
    <vehicle id="8" type="passenger" depart="2.50">
        <route edges="left0A0.250.00 A0right0"/>
    </vehicle>
    <vehicle id="10" type="passenger" depart="3.50">
        <route edges="right0A0.250.00 A0left0"/>
    </vehicle>
    <vehicle id="13" type="passenger" depart="5.15">
        <route edges="top0A0 top0A0.250.00"/>
    </vehicle>
    <vehicle id="14" type="passenger" depart="5.20">
        <route edges="top0A0 top0A0.250.00"/>
    </vehicle>
    <vehicle id="15" type="passenger" depart="5.70">
        <route edges="top0A0.250.00 A0left0"/>
    </vehicle>
    <vehicle id="16" type="passenger" depart="5.90">
        <route edges="left0A0 left0A0.250.00"/>
    </vehicle>
    <vehicle id="19" type="passenger" depart="8.20">
        <route edges="top0A0.250.00 A0left0"/>
    </vehicle>
    <vehicle id="20" type="passenger" depart="8.30">
        <route edges="bottom0A0.250.00 A0right0"/>
    </vehicle>
    <vehicle id="24" type="passenger" depart="10.40">
        <route edges="left0A0 left0A0.250.00 A0right0"/>
    </vehicle>
    <vehicle id="26" type="passenger" depart="11.65">
        <route edges="top0A0 top0A0.250.00 A0bottom0"/>
    </vehicle>
    <vehicle id="27" type="passenger" depart="12.10">
        <route edges="top0A0 top0A0.250.00 A0right0"/>
    </vehicle>
    <vehicle id="29" type="passenger" depart="13.10">
        <route edges="left0A0 left0A0.250.00 A0bottom0"/>
    </vehicle>
    <vehicle id="30" type="passenger" depart="13.25">
        <route edges="left0A0.250.00 A0right0"/>
    </vehicle>
    <vehicle id="33" type="passenger" depart="14.50">
        <route edges="left0A0.250.00 A0top0"/>
    </vehicle>
    <vehicle id="39" type="passenger" depart="16.15">
        <route edges="left0A0 left0A0.250.00 A0top0"/>
    </vehicle>
    <vehicle id="40" type="passenger" depart="16.50">
        <route edges="left0A0 left0A0.250.00"/>
    </vehicle>
    <vehicle id="42" type="passenger" depart="17.75">
        <route edges="top0A0 top0A0.250.00"/>
    </vehicle>
    <vehicle id="44" type="passenger" depart="18.90">
        <route edges="right0A0.250.00 A0top0"/>
    </vehicle>
    <vehicle id="45" type="passenger" depart="19.20">
        <route edges="left0A0 left0A0.250.00 A0right0"/>
    </vehicle>
    <vehicle id="47" type="passenger" depart="19.80">
        <route edges="top0A0.250.00 A0right0"/>
    </vehicle>
    <vehicle id="48" type="passenger" depart="20.25">
        <route edges="top0A0 top0A0.250.00"/>
    </vehicle>
    <vehicle id="54" type="passenger" depart="23.65">
        <route edges="right0A0.250.00 A0left0"/>
    </vehicle>
    <vehicle id="57" type="passenger" depart="24.65">
        <route edges="right0A0 right0A0.250.00 A0bottom0"/>
    </vehicle>
    <vehicle id="58" type="passenger" depart="25.10">
        <route edges="right0A0.250.00"/>
    </vehicle>
    <vehicle id="60" type="passenger" depart="25.50">
        <route edges="left0A0 left0A0.250.00 A0top0"/>
    </vehicle>
    <vehicle id="61" type="passenger" depart="25.60">
        <route edges="right0A0 right0A0.250.00 A0bottom0"/>
    </vehicle>
    <vehicle id="62" type="passenger" depart="26.35">
        <route edges="top0A0.250.00 A0bottom0"/>
    </vehicle>
    <vehicle id="65" type="passenger" depart="26.80">
        <route edges="left0A0.250.00 A0right0"/>
    </vehicle>
    <vehicle id="66" type="passenger" depart="26.85">
        <route edges="top0A0.250.00"/>
    </vehicle>
    <vehicle id="67" type="passenger" depart="27.10">
        <route edges="right0A0.250.00 A0top0"/>
    </vehicle>
    <vehicle id="68" type="passenger" depart="27.20">
        <route edges="left0A0 left0A0.250.00 A0top0"/>
    </vehicle>
    <vehicle id="73" type="passenger" depart="28.20">
        <route edges="right0A0 right0A0.250.00"/>
    </vehicle>
    <vehicle id="75" type="passenger" depart="29.80">
        <route edges="top0A0 top0A0.250.00 A0left0"/>
    </vehicle>
    <vehicle id="76" type="passenger" depart="29.90">
        <route edges="left0A0.250.00"/>
    </vehicle>
    <vehicle id="77" type="passenger" depart="30.25">
        <route edges="right0A0.250.00 A0left0"/>
    </vehicle>
    <vehicle id="79" type="passenger" depart="31.25">
        <route edges="bottom0A0 bottom0A0.250.00"/>
    </vehicle>
    <vehicle id="80" type="passenger" depart="31.55">
        <route edges="top0A0.250.00 A0bottom0"/>
    </vehicle>
    <vehicle id="82" type="passenger" depart="31.65">
        <route edges="left0A0.250.00 A0right0"/>
    </vehicle>
    <vehicle id="85" type="passenger" depart="33.45">
        <route edges="right0A0.250.00 A0left0"/>
    </vehicle>
    <vehicle id="88" type="passenger" depart="34.60">
        <route edges="top0A0.250.00 A0left0"/>
    </vehicle>
    <vehicle id="89" type="passenger" depart="34.70">
        <route edges="right0A0.250.00 A0bottom0"/>
    </vehicle>
    <vehicle id="90" type="passenger" depart="35.00">
        <route edges="right0A0.250.00 A0left0"/>
    </vehicle>
    <vehicle id="91" type="passenger" depart="35.00">
        <route edges="right0A0 right0A0.250.00"/>
    </vehicle>
    <vehicle id="95" type="passenger" depart="37.50">
        <route edges="right0A0.250.00 A0bottom0"/>
    </vehicle>
    <vehicle id="96" type="passenger" depart="38.50">
        <route edges="right0A0 right0A0.250.00 A0bottom0"/>
    </vehicle>
    <vehicle id="98" type="passenger" depart="39.15">
        <route edges="right0A0.250.00 A0left0"/>
    </vehicle>
    <vehicle id="99" type="passenger" depart="39.30">
        <route edges="bottom0A0 bottom0A0.250.00 A0top0"/>
    </vehicle>
    <vehicle id="101" type="passenger" depart="40.30">
        <route edges="bottom0A0.250.00 A0left0"/>
    </vehicle>
    <vehicle id="104" type="passenger" depart="42.75">
        <route edges="top0A0 top0A0.250.00 A0left0"/>
    </vehicle>
    <vehicle id="106" type="passenger" depart="42.95">
        <route edges="left0A0 left0A0.250.00 A0bottom0"/>
    </vehicle>
    <vehicle id="112" type="passenger" depart="46.70">
        <route edges="top0A0.250.00 A0left0"/>
    </vehicle>
    <vehicle id="115" type="passenger" depart="49.50">
        <route edges="left0A0 left0A0.250.00 A0right0"/>
    </vehicle>
    <vehicle id="117" type="passenger" depart="49.70">
        <route edges="top0A0.250.00 A0left0"/>
    </vehicle>
    <vehicle id="118" type="passenger" depart="50.75">
        <route edges="top0A0 top0A0.250.00 A0bottom0"/>
    </vehicle>
    <vehicle id="120" type="passenger" depart="52.50">
        <route edges="bottom0A0.250.00 A0top0"/>
    </vehicle>
    <vehicle id="122" type="passenger" depart="52.85">
        <route edges="left0A0 left0A0.250.00 A0bottom0"/>
    </vehicle>
    <vehicle id="123" type="passenger" depart="53.95">
        <route edges="top0A0 top0A0.250.00 A0bottom0"/>
    </vehicle>
    <vehicle id="124" type="passenger" depart="54.30">
        <route edges="top0A0 top0A0.250.00"/>
    </vehicle>
    <vehicle id="125" type="passenger" depart="54.80">
        <route edges="top0A0.250.00"/>
    </vehicle>
    <vehicle id="128" type="passenger" depart="56.40">
        <route edges="left0A0.250.00 A0bottom0"/>
    </vehicle>
    <vehicle id="129" type="passenger" depart="58.05">
        <route edges="left0A0.250.00 A0right0"/>
    </vehicle>
    <vehicle id="130" type="passenger" depart="58.55">
        <route edges="top0A0.250.00 A0left0"/>
    </vehicle>
    <vehicle id="132" type="passenger" depart="59.50">
        <route edges="bottom0A0.250.00 A0left0"/>
    </vehicle>
    <vehicle id="133" type="passenger" depart="59.60">
        <route edges="left0A0 left0A0.250.00 A0top0"/>
    </vehicle>
    <vehicle id="134" type="passenger" depart="59.60">
        <route edges="bottom0A0.250.00 A0left0"/>
    </vehicle>
    <vehicle id="137" type="passenger" depart="60.60">
        <route edges="right0A0.250.00 A0left0"/>
    </vehicle>
    <vehicle id="138" type="passenger" depart="61.10">
        <route edges="bottom0A0 bottom0A0.250.00"/>
    </vehicle>
    <vehicle id="140" type="passenger" depart="62.00">
        <route edges="left0A0.250.00 A0right0"/>
    </vehicle>
    <vehicle id="142" type="passenger" depart="63.25">
        <route edges="top0A0 top0A0.250.00 A0right0"/>
    </vehicle>
    <vehicle id="145" type="passenger" depart="64.75">
        <route edges="bottom0A0 bottom0A0.250.00"/>
    </vehicle>
    <vehicle id="147" type="passenger" depart="66.00">
        <route edges="top0A0 top0A0.250.00 A0left0"/>
    </vehicle>
    <vehicle id="149" type="passenger" depart="68.40">
        <route edges="top0A0 top0A0.250.00 A0right0"/>
    </vehicle>
    <vehicle id="150" type="passenger" depart="72.15">
        <route edges="top0A0.250.00 A0bottom0"/>
    </vehicle>
    <vehicle id="151" type="passenger" depart="72.40">
        <route edges="bottom0A0 bottom0A0.250.00 A0left0"/>
    </vehicle>
    <vehicle id="152" type="passenger" depart="72.70">
        <route edges="right0A0 right0A0.250.00 A0bottom0"/>
    </vehicle>
    <vehicle id="153" type="passenger" depart="74.40">
        <route edges="right0A0 right0A0.250.00 A0top0"/>
    </vehicle>
    <vehicle id="156" type="passenger" depart="75.25">
        <route edges="left0A0.250.00 A0bottom0"/>
    </vehicle>
    <vehicle id="159" type="passenger" depart="75.80">
        <route edges="right0A0 right0A0.250.00 A0left0"/>
    </vehicle>
    <vehicle id="160" type="passenger" depart="76.20">
        <route edges="right0A0 right0A0.250.00"/>
    </vehicle>
    <vehicle id="164" type="passenger" depart="77.75">
        <route edges="left0A0 left0A0.250.00 A0top0"/>
    </vehicle>
    <vehicle id="165" type="passenger" depart="78.05">
        <route edges="right0A0 right0A0.250.00 A0left0"/>
    </vehicle>
    <vehicle id="166" type="passenger" depart="78.75">
        <route edges="right0A0.250.00 A0left0"/>
    </vehicle>
    <vehicle id="167" type="passenger" depart="78.95">
        <route edges="bottom0A0.250.00 A0top0"/>
    </vehicle>
    <vehicle id="169" type="passenger" depart="79.35">
        <route edges="bottom0A0.250.00 A0left0"/>
    </vehicle>
    <vehicle id="171" type="passenger" depart="80.45">
        <route edges="bottom0A0.250.00 A0top0"/>
    </vehicle>
    <vehicle id="172" type="passenger" depart="80.55">
        <route edges="right0A0 right0A0.250.00 A0bottom0"/>
    </vehicle>
    <vehicle id="173" type="passenger" depart="82.25">
        <route edges="top0A0.250.00 A0right0"/>
    </vehicle>
    <vehicle id="174" type="passenger" depart="82.85">
        <route edges="left0A0 left0A0.250.00 A0right0"/>
    </vehicle>
    <vehicle id="175" type="passenger" depart="83.75">
        <route edges="bottom0A0.250.00 A0right0"/>
    </vehicle>
    <vehicle id="176" type="passenger" depart="83.80">
        <route edges="bottom0A0.250.00"/>
    </vehicle>
    <vehicle id="179" type="passenger" depart="84.85">
        <route edges="top0A0 top0A0.250.00 A0left0"/>
    </vehicle>
    <vehicle id="180" type="passenger" depart="85.00">
        <route edges="bottom0A0.250.00 A0left0"/>
    </vehicle>
    <vehicle id="181" type="passenger" depart="85.40">
        <route edges="left0A0 left0A0.250.00"/>
    </vehicle>
    <vehicle id="182" type="passenger" depart="85.75">
        <route edges="right0A0 right0A0.250.00"/>
    </vehicle>
    <vehicle id="184" type="passenger" depart="86.55">
        <route edges="left0A0.250.00"/>
    </vehicle>
    <vehicle id="185" type="passenger" depart="86.60">
        <route edges="top0A0 top0A0.250.00"/>
    </vehicle>
    <vehicle id="186" type="passenger" depart="86.60">
        <route edges="left0A0 left0A0.250.00 A0right0"/>
    </vehicle>
    <vehicle id="188" type="passenger" depart="87.40">
        <route edges="right0A0.250.00 A0top0"/>
    </vehicle>
    <vehicle id="190" type="passenger" depart="90.55">
        <route edges="left0A0.250.00 A0right0"/>
    </vehicle>
    <vehicle id="192" type="passenger" depart="92.60">
        <route edges="right0A0 right0A0.250.00"/>
    </vehicle>
    <vehicle id="199" type="passenger" depart="96.00">
        <route edges="right0A0.250.00 A0bottom0"/>
    </vehicle>
    <vehicle id="201" type="passenger" depart="97.10">
        <route edges="bottom0A0.250.00"/>
    </vehicle>
    <vehicle id="202" type="passenger" depart="97.50">
        <route edges="left0A0 left0A0.250.00 A0top0"/>
    </vehicle>
    <vehicle id="203" type="passenger" depart="97.95">
        <route edges="bottom0A0 bottom0A0.250.00 A0right0"/>
    </vehicle>
    <vehicle id="204" type="passenger" depart="98.15">
        <route edges="left0A0 left0A0.250.00"/>
    </vehicle>
    <vehicle id="205" type="passenger" depart="99.35">
        <route edges="top0A0 top0A0.250.00 A0left0"/>
    </vehicle>
    <vehicle id="207" type="passenger" depart="100.50">
        <route edges="left0A0 left0A0.250.00 A0bottom0"/>
    </vehicle>
    <vehicle id="210" type="passenger" depart="100.85">
        <route edges="top0A0.250.00 A0right0"/>
    </vehicle>
    <vehicle id="213" type="passenger" depart="101.40">
        <route edges="top0A0.250.00 A0right0"/>
    </vehicle>
    <vehicle id="218" type="passenger" depart="104.00">
        <route edges="bottom0A0 bottom0A0.250.00 A0right0"/>
    </vehicle>
    <vehicle id="222" type="passenger" depart="104.65">
        <route edges="right0A0.250.00"/>
    </vehicle>
    <vehicle id="225" type="passenger" depart="107.15">
        <route edges="right0A0.250.00 A0top0"/>
    </vehicle>
    <vehicle id="226" type="passenger" depart="107.35">
        <route edges="bottom0A0.250.00 A0top0"/>
    </vehicle>
    <vehicle id="227" type="passenger" depart="107.65">
        <route edges="bottom0A0.250.00 A0top0"/>
    </vehicle>
    <vehicle id="228" type="passenger" depart="107.70">
        <route edges="left0A0.250.00 A0bottom0"/>
    </vehicle>
    <vehicle id="234" type="passenger" depart="108.55">
        <route edges="right0A0.250.00"/>
    </vehicle>
    <vehicle id="236" type="passenger" depart="112.00">
        <route edges="right0A0 right0A0.250.00 A0top0"/>
    </vehicle>
    <vehicle id="238" type="passenger" depart="112.85">
        <route edges="right0A0.250.00 A0bottom0"/>
    </vehicle>
    <vehicle id="239" type="passenger" depart="113.25">
        <route edges="top0A0 top0A0.250.00 A0left0"/>
    </vehicle>
    <vehicle id="242" type="passenger" depart="116.50">
        <route edges="right0A0 right0A0.250.00"/>
    </vehicle>
    <vehicle id="243" type="passenger" depart="116.50">
        <route edges="right0A0.250.00 A0top0"/>
    </vehicle>
    <vehicle id="244" type="passenger" depart="117.25">
        <route edges="right0A0.250.00 A0left0"/>
    </vehicle>
    <vehicle id="245" type="passenger" depart="117.50">
        <route edges="top0A0.250.00 A0right0"/>
    </vehicle>
    <vehicle id="246" type="passenger" depart="117.75">
        <route edges="bottom0A0.250.00 A0right0"/>
    </vehicle>
    <vehicle id="247" type="passenger" depart="118.35">
        <route edges="top0A0 top0A0.250.00"/>
    </vehicle>
    <vehicle id="248" type="passenger" depart="118.50">
        <route edges="top0A0.250.00 A0bottom0"/>
    </vehicle>
    <vehicle id="249" type="passenger" depart="118.80">
        <route edges="top0A0.250.00 A0right0"/>
    </vehicle>
    <vehicle id="251" type="passenger" depart="120.20">
        <route edges="left0A0 left0A0.250.00 A0top0"/>
    </vehicle>
    <vehicle id="252" type="passenger" depart="120.30">
        <route edges="right0A0.250.00"/>
    </vehicle>
    <vehicle id="253" type="passenger" depart="120.50">
        <route edges="left0A0 left0A0.250.00 A0right0"/>
    </vehicle>
    <vehicle id="255" type="passenger" depart="120.65">
        <route edges="right0A0.250.00 A0top0"/>
    </vehicle>
    <vehicle id="257" type="passenger" depart="121.35">
        <route edges="top0A0.250.00 A0right0"/>
    </vehicle>
    <vehicle id="258" type="passenger" depart="122.15">
        <route edges="left0A0 left0A0.250.00 A0right0"/>
    </vehicle>
    <vehicle id="259" type="passenger" depart="122.55">
        <route edges="left0A0 left0A0.250.00 A0bottom0"/>
    </vehicle>
    <vehicle id="260" type="passenger" depart="122.70">
        <route edges="top0A0 top0A0.250.00 A0left0"/>
    </vehicle>
    <vehicle id="262" type="passenger" depart="123.20">
        <route edges="right0A0.250.00 A0bottom0"/>
    </vehicle>
    <vehicle id="263" type="passenger" depart="123.40">
        <route edges="top0A0.250.00 A0right0"/>
    </vehicle>
    <vehicle id="265" type="passenger" depart="124.25">
        <route edges="top0A0 top0A0.250.00 A0left0"/>
    </vehicle>
    <vehicle id="266" type="passenger" depart="125.40">
        <route edges="left0A0 left0A0.250.00 A0bottom0"/>
    </vehicle>
    <vehicle id="267" type="passenger" depart="126.10">
        <route edges="bottom0A0 bottom0A0.250.00"/>
    </vehicle>
    <vehicle id="276" type="passenger" depart="129.35">
        <route edges="bottom0A0 bottom0A0.250.00 A0left0"/>
    </vehicle>
    <vehicle id="277" type="passenger" depart="129.50">
        <route edges="right0A0.250.00 A0top0"/>
    </vehicle>
    <vehicle id="283" type="passenger" depart="130.90">
        <route edges="right0A0.250.00 A0top0"/>
    </vehicle>
    <vehicle id="284" type="passenger" depart="131.05">
        <route edges="top0A0 top0A0.250.00 A0right0"/>
    </vehicle>
    <vehicle id="285" type="passenger" depart="131.55">
        <route edges="left0A0.250.00 A0bottom0"/>
    </vehicle>
    <vehicle id="287" type="passenger" depart="131.80">
        <route edges="right0A0 right0A0.250.00"/>
    </vehicle>
    <vehicle id="288" type="passenger" depart="131.95">
        <route edges="right0A0.250.00 A0left0"/>
    </vehicle>
    <vehicle id="290" type="passenger" depart="132.50">
        <route edges="bottom0A0.250.00 A0top0"/>
    </vehicle>
    <vehicle id="291" type="passenger" depart="132.60">
        <route edges="right0A0 right0A0.250.00"/>
    </vehicle>
    <vehicle id="292" type="passenger" depart="132.90">
        <route edges="top0A0 top0A0.250.00 A0left0"/>
    </vehicle>
    <vehicle id="293" type="passenger" depart="133.45">
        <route edges="right0A0 right0A0.250.00 A0top0"/>
    </vehicle>
    <vehicle id="294" type="passenger" depart="134.60">
        <route edges="top0A0 top0A0.250.00 A0bottom0"/>
    </vehicle>
    <vehicle id="295" type="passenger" depart="136.05">
        <route edges="left0A0.250.00 A0top0"/>
    </vehicle>
    <vehicle id="296" type="passenger" depart="136.60">
        <route edges="left0A0 left0A0.250.00 A0bottom0"/>
    </vehicle>
    <vehicle id="297" type="passenger" depart="136.70">
        <route edges="right0A0.250.00"/>
    </vehicle>
    <vehicle id="298" type="passenger" depart="138.35">
        <route edges="left0A0 left0A0.250.00 A0top0"/>
    </vehicle>
    <vehicle id="299" type="passenger" depart="138.75">
        <route edges="right0A0.250.00 A0top0"/>
    </vehicle>
    <vehicle id="301" type="passenger" depart="140.30">
        <route edges="right0A0.250.00 A0bottom0"/>
    </vehicle>
    <vehicle id="304" type="passenger" depart="141.20">
        <route edges="bottom0A0.250.00 A0top0"/>
    </vehicle>
    <vehicle id="311" type="passenger" depart="145.20">
        <route edges="right0A0 right0A0.250.00"/>
    </vehicle>
    <vehicle id="315" type="passenger" depart="146.90">
        <route edges="left0A0 left0A0.250.00 A0bottom0"/>
    </vehicle>
    <vehicle id="317" type="passenger" depart="147.55">
        <route edges="bottom0A0 bottom0A0.250.00 A0right0"/>
    </vehicle>
    <vehicle id="318" type="passenger" depart="148.55">
        <route edges="right0A0 right0A0.250.00 A0top0"/>
    </vehicle>
    <vehicle id="319" type="passenger" depart="149.20">
        <route edges="top0A0.250.00 A0left0"/>
    </vehicle>
    <vehicle id="320" type="passenger" depart="149.60">
        <route edges="right0A0 right0A0.250.00 A0left0"/>
    </vehicle>
    <vehicle id="322" type="passenger" depart="150.40">
        <route edges="right0A0.250.00"/>
    </vehicle>
    <vehicle id="324" type="passenger" depart="151.00">
        <route edges="right0A0.250.00"/>
    </vehicle>
    <vehicle id="326" type="passenger" depart="151.85">
        <route edges="left0A0.250.00 A0bottom0"/>
    </vehicle>
    <vehicle id="329" type="passenger" depart="152.25">
        <route edges="top0A0 top0A0.250.00"/>
    </vehicle>
    <vehicle id="330" type="passenger" depart="152.70">
        <route edges="top0A0 top0A0.250.00"/>
    </vehicle>
    <vehicle id="331" type="passenger" depart="153.10">
        <route edges="left0A0 left0A0.250.00 A0bottom0"/>
    </vehicle>
    <vehicle id="332" type="passenger" depart="153.60">
        <route edges="right0A0 right0A0.250.00 A0top0"/>
    </vehicle>
    <vehicle id="334" type="passenger" depart="154.40">
        <route edges="bottom0A0 bottom0A0.250.00"/>
    </vehicle>
    <vehicle id="336" type="passenger" depart="155.15">
        <route edges="bottom0A0 bottom0A0.250.00 A0right0"/>
    </vehicle>
    <vehicle id="337" type="passenger" depart="155.30">
        <route edges="top0A0 top0A0.250.00"/>
    </vehicle>
    <vehicle id="339" type="passenger" depart="156.25">
        <route edges="left0A0 left0A0.250.00 A0right0"/>
    </vehicle>
    <vehicle id="343" type="passenger" depart="157.50">
        <route edges="bottom0A0.250.00 A0left0"/>
    </vehicle>
    <vehicle id="347" type="passenger" depart="158.15">
        <route edges="top0A0 top0A0.250.00 A0right0"/>
    </vehicle>
    <vehicle id="348" type="passenger" depart="158.50">
        <route edges="right0A0.250.00 A0top0"/>
    </vehicle>
    <vehicle id="351" type="passenger" depart="160.10">
        <route edges="right0A0 right0A0.250.00 A0top0"/>
    </vehicle>
    <vehicle id="352" type="passenger" depart="160.75">
        <route edges="bottom0A0 bottom0A0.250.00 A0left0"/>
    </vehicle>
    <vehicle id="354" type="passenger" depart="162.40">
        <route edges="top0A0.250.00"/>
    </vehicle>
    <vehicle id="357" type="passenger" depart="163.50">
        <route edges="left0A0.250.00"/>
    </vehicle>
    <vehicle id="358" type="passenger" depart="163.80">
        <route edges="left0A0 left0A0.250.00 A0top0"/>
    </vehicle>
    <vehicle id="362" type="passenger" depart="164.65">
        <route edges="top0A0 top0A0.250.00"/>
    </vehicle>
    <vehicle id="363" type="passenger" depart="165.70">
        <route edges="left0A0 left0A0.250.00 A0top0"/>
    </vehicle>
    <vehicle id="365" type="passenger" depart="166.70">
        <route edges="right0A0 right0A0.250.00 A0left0"/>
    </vehicle>
    <vehicle id="366" type="passenger" depart="166.75">
        <route edges="left0A0.250.00 A0bottom0"/>
    </vehicle>
    <vehicle id="367" type="passenger" depart="166.75">
        <route edges="left0A0.250.00"/>
    </vehicle>
    <vehicle id="368" type="passenger" depart="167.05">
        <route edges="top0A0.250.00 A0left0"/>
    </vehicle>
    <vehicle id="371" type="passenger" depart="167.50">
        <route edges="bottom0A0 bottom0A0.250.00"/>
    </vehicle>
    <vehicle id="372" type="passenger" depart="168.35">
        <route edges="top0A0.250.00 A0left0"/>
    </vehicle>
    <vehicle id="374" type="passenger" depart="168.95">
        <route edges="right0A0 right0A0.250.00 A0top0"/>
    </vehicle>
    <vehicle id="381" type="passenger" depart="169.75">
        <route edges="right0A0 right0A0.250.00"/>
    </vehicle>
    <vehicle id="385" type="passenger" depart="170.75">
        <route edges="bottom0A0 bottom0A0.250.00"/>
    </vehicle>
    <vehicle id="387" type="passenger" depart="171.45">
        <route edges="right0A0 right0A0.250.00"/>
    </vehicle>
    <vehicle id="388" type="passenger" depart="171.85">
        <route edges="top0A0.250.00 A0right0"/>
    </vehicle>
    <vehicle id="389" type="passenger" depart="172.20">
        <route edges="bottom0A0.250.00 A0right0"/>
    </vehicle>
    <vehicle id="390" type="passenger" depart="173.30">
        <route edges="top0A0 top0A0.250.00 A0left0"/>
    </vehicle>
    <vehicle id="392" type="passenger" depart="174.35">
        <route edges="bottom0A0.250.00 A0right0"/>
    </vehicle>
    <vehicle id="393" type="passenger" depart="174.45">
        <route edges="right0A0 right0A0.250.00 A0top0"/>
    </vehicle>
    <vehicle id="394" type="passenger" depart="174.95">
        <route edges="top0A0 top0A0.250.00 A0right0"/>
    </vehicle>
    <vehicle id="397" type="passenger" depart="175.25">
        <route edges="left0A0.250.00 A0right0"/>
    </vehicle>
    <vehicle id="398" type="passenger" depart="177.15">
        <route edges="top0A0 top0A0.250.00 A0left0"/>
    </vehicle>
    <vehicle id="401" type="passenger" depart="177.75">
        <route edges="top0A0.250.00"/>
    </vehicle>
    <vehicle id="402" type="passenger" depart="178.00">
        <route edges="right0A0.250.00 A0top0"/>
    </vehicle>
    <vehicle id="405" type="passenger" depart="179.50">
        <route edges="top0A0 top0A0.250.00 A0bottom0"/>
    </vehicle>
    <vehicle id="406" type="passenger" depart="179.65">
        <route edges="left0A0.250.00 A0top0"/>
    </vehicle>
    <vehicle id="407" type="passenger" depart="180.45">
        <route edges="left0A0 left0A0.250.00 A0right0"/>
    </vehicle>
    <vehicle id="409" type="passenger" depart="182.70">
        <route edges="right0A0 right0A0.250.00 A0left0"/>
    </vehicle>
    <vehicle id="413" type="passenger" depart="183.65">
        <route edges="right0A0.250.00 A0top0"/>
    </vehicle>
    <vehicle id="417" type="passenger" depart="185.70">
        <route edges="left0A0.250.00 A0top0"/>
    </vehicle>
    <vehicle id="420" type="passenger" depart="186.65">
        <route edges="right0A0 right0A0.250.00"/>
    </vehicle>
    <vehicle id="421" type="passenger" depart="186.80">
        <route edges="left0A0.250.00"/>
    </vehicle>
    <vehicle id="423" type="passenger" depart="188.00">
        <route edges="top0A0.250.00"/>
    </vehicle>
    <vehicle id="427" type="passenger" depart="188.40">
        <route edges="top0A0.250.00 A0bottom0"/>
    </vehicle>
    <vehicle id="428" type="passenger" depart="188.60">
        <route edges="bottom0A0.250.00"/>
    </vehicle>
    <vehicle id="429" type="passenger" depart="188.70">
        <route edges="bottom0A0 bottom0A0.250.00 A0right0"/>
    </vehicle>
    <vehicle id="431" type="passenger" depart="189.05">
        <route edges="left0A0.250.00 A0top0"/>
    </vehicle>
    <vehicle id="434" type="passenger" depart="189.65">
        <route edges="left0A0 left0A0.250.00 A0right0"/>
    </vehicle>
    <vehicle id="435" type="passenger" depart="189.70">
        <route edges="bottom0A0.250.00 A0top0"/>
    </vehicle>
    <vehicle id="436" type="passenger" depart="189.75">
        <route edges="left0A0 left0A0.250.00"/>
    </vehicle>
    <vehicle id="438" type="passenger" depart="190.85">
        <route edges="left0A0.250.00"/>
    </vehicle>
    <vehicle id="439" type="passenger" depart="191.00">
        <route edges="left0A0 left0A0.250.00"/>
    </vehicle>
    <vehicle id="440" type="passenger" depart="191.55">
        <route edges="bottom0A0.250.00 A0left0"/>
    </vehicle>
    <vehicle id="443" type="passenger" depart="191.95">
        <route edges="top0A0.250.00 A0right0"/>
    </vehicle>
    <vehicle id="445" type="passenger" depart="192.75">
        <route edges="top0A0.250.00 A0bottom0"/>
    </vehicle>
    <vehicle id="447" type="passenger" depart="193.15">
        <route edges="right0A0 right0A0.250.00"/>
    </vehicle>