<?xml version="1.0" encoding="UTF-8"?>

<!-- generated on 2023-04-26 16:56:59.112479 by randomTrips.py UNKNOWN
<configuration>
    <begin value="0"/>
    <end value="900"/>
    <insertion-rate value="8000.0"/>
    <net-file value="/home/franky3er/Documents/code/HieraGLight/scenarios/grid/1x1-500m/train/61-scenario/network.net.xml"/>
    <random value="True"/>
    <random-depart value="True"/>
    <route-file value="/home/franky3er/Documents/code/HieraGLight/scenarios/grid/1x1-500m/train/61-scenario/routes.rou.xml"/>
    <seed value="61"/>
    <output-trip-file value="/home/franky3er/Documents/code/HieraGLight/scenarios/grid/1x1-500m/train/61-scenario/trips.trips.xml"/>
    <vehicle-class value="passenger"/>
</configuration>
-->

<!-- generated on 2023-04-26 16:56:59 by Eclipse SUMO duarouter Version 1.16.0
<configuration xmlns:xsi="http://www.w3.org/2001/XMLSchema-instance" xsi:noNamespaceSchemaLocation="http://sumo.dlr.de/xsd/duarouterConfiguration.xsd">

    <input>
        <net-file value="/home/franky3er/Documents/code/HieraGLight/scenarios/grid/1x1-500m/train/61-scenario/network.net.xml"/>
        <route-files value="/home/franky3er/Documents/code/HieraGLight/scenarios/grid/1x1-500m/train/61-scenario/trips.trips.xml"/>
    </input>

    <output>
        <output-file value="/home/franky3er/Documents/code/HieraGLight/scenarios/grid/1x1-500m/train/61-scenario/routes.rou.xml"/>
        <alternatives-output value="NUL"/>
    </output>

    <time>
        <begin value="0"/>
        <end value="900"/>
    </time>

    <report>
        <no-warnings value="true"/>
        <ignore-errors value="true"/>
        <no-step-log value="true"/>
    </report>

</configuration>
-->

<routes xmlns:xsi="http://www.w3.org/2001/XMLSchema-instance" xsi:noNamespaceSchemaLocation="http://sumo.dlr.de/xsd/routes_file.xsd">
    <vType id="passenger" vClass="passenger"/>
    <vehicle id="2" type="passenger" depart="1.50">
        <route edges="left0A0.250.00 A0right0"/>
    </vehicle>
    <vehicle id="4" type="passenger" depart="2.05">
        <route edges="top0A0 top0A0.250.00 A0bottom0"/>
    </vehicle>
    <vehicle id="5" type="passenger" depart="3.65">
        <route edges="bottom0A0 bottom0A0.250.00 A0top0"/>
    </vehicle>
    <vehicle id="7" type="passenger" depart="4.90">
        <route edges="right0A0 right0A0.250.00"/>
    </vehicle>
    <vehicle id="9" type="passenger" depart="5.25">
        <route edges="bottom0A0 bottom0A0.250.00"/>
    </vehicle>
    <vehicle id="12" type="passenger" depart="7.75">
        <route edges="right0A0.250.00 A0top0"/>
    </vehicle>
    <vehicle id="13" type="passenger" depart="8.25">
        <route edges="bottom0A0 bottom0A0.250.00 A0right0"/>
    </vehicle>
    <vehicle id="14" type="passenger" depart="8.55">
        <route edges="top0A0.250.00 A0right0"/>
    </vehicle>
    <vehicle id="15" type="passenger" depart="8.65">
        <route edges="bottom0A0 bottom0A0.250.00 A0right0"/>
    </vehicle>
    <vehicle id="16" type="passenger" depart="8.75">
        <route edges="bottom0A0 bottom0A0.250.00 A0right0"/>
    </vehicle>
    <vehicle id="17" type="passenger" depart="9.10">
        <route edges="bottom0A0 bottom0A0.250.00 A0left0"/>
    </vehicle>
    <vehicle id="19" type="passenger" depart="10.55">
        <route edges="right0A0 right0A0.250.00 A0top0"/>
    </vehicle>
    <vehicle id="21" type="passenger" depart="11.85">
        <route edges="right0A0.250.00 A0top0"/>
    </vehicle>
    <vehicle id="24" type="passenger" depart="15.25">
        <route edges="left0A0 left0A0.250.00 A0bottom0"/>
    </vehicle>
    <vehicle id="27" type="passenger" depart="16.70">
        <route edges="bottom0A0 bottom0A0.250.00 A0left0"/>
    </vehicle>
    <vehicle id="28" type="passenger" depart="17.05">
        <route edges="top0A0 top0A0.250.00 A0right0"/>
    </vehicle>
    <vehicle id="31" type="passenger" depart="19.35">
        <route edges="top0A0.250.00"/>
    </vehicle>
    <vehicle id="32" type="passenger" depart="20.75">
        <route edges="top0A0 top0A0.250.00 A0bottom0"/>
    </vehicle>
    <vehicle id="35" type="passenger" depart="21.75">
        <route edges="top0A0.250.00 A0right0"/>
    </vehicle>
    <vehicle id="36" type="passenger" depart="23.50">
        <route edges="right0A0 right0A0.250.00 A0top0"/>
    </vehicle>
    <vehicle id="37" type="passenger" depart="23.55">
        <route edges="bottom0A0 bottom0A0.250.00 A0left0"/>
    </vehicle>
    <vehicle id="38" type="passenger" depart="23.60">
        <route edges="left0A0.250.00"/>
    </vehicle>
    <vehicle id="39" type="passenger" depart="23.75">
        <route edges="bottom0A0.250.00 A0right0"/>
    </vehicle>
    <vehicle id="41" type="passenger" depart="24.40">
        <route edges="left0A0.250.00 A0bottom0"/>
    </vehicle>
    <vehicle id="46" type="passenger" depart="26.85">
        <route edges="right0A0.250.00"/>
    </vehicle>
    <vehicle id="49" type="passenger" depart="29.30">
        <route edges="bottom0A0 bottom0A0.250.00 A0top0"/>
    </vehicle>
    <vehicle id="50" type="passenger" depart="29.80">
        <route edges="top0A0 top0A0.250.00 A0bottom0"/>
    </vehicle>
    <vehicle id="51" type="passenger" depart="30.10">
        <route edges="right0A0.250.00 A0top0"/>
    </vehicle>
    <vehicle id="53" type="passenger" depart="31.10">
        <route edges="left0A0 left0A0.250.00"/>
    </vehicle>
    <vehicle id="56" type="passenger" depart="31.55">
        <route edges="right0A0.250.00 A0left0"/>
    </vehicle>
    <vehicle id="57" type="passenger" depart="32.00">
        <route edges="top0A0.250.00"/>
    </vehicle>
    <vehicle id="58" type="passenger" depart="32.20">
        <route edges="right0A0 right0A0.250.00"/>
    </vehicle>
    <vehicle id="59" type="passenger" depart="32.40">
        <route edges="left0A0.250.00 A0top0"/>
    </vehicle>
    <vehicle id="61" type="passenger" depart="33.05">
        <route edges="bottom0A0 bottom0A0.250.00"/>
    </vehicle>
    <vehicle id="63" type="passenger" depart="33.60">
        <route edges="right0A0.250.00 A0top0"/>
    </vehicle>
    <vehicle id="67" type="passenger" depart="35.00">
        <route edges="top0A0 top0A0.250.00 A0bottom0"/>
    </vehicle>
    <vehicle id="68" type="passenger" depart="35.15">
        <route edges="top0A0.250.00 A0bottom0"/>
    </vehicle>
    <vehicle id="73" type="passenger" depart="40.85">
        <route edges="bottom0A0.250.00 A0right0"/>
    </vehicle>
    <vehicle id="74" type="passenger" depart="41.10">
        <route edges="top0A0.250.00 A0bottom0"/>
    </vehicle>
    <vehicle id="75" type="passenger" depart="41.40">
        <route edges="bottom0A0.250.00"/>
    </vehicle>
    <vehicle id="76" type="passenger" depart="41.45">
        <route edges="top0A0 top0A0.250.00"/>
    </vehicle>
    <vehicle id="77" type="passenger" depart="41.70">
        <route edges="right0A0 right0A0.250.00 A0top0"/>
    </vehicle>
    <vehicle id="78" type="passenger" depart="42.70">
        <route edges="top0A0.250.00 A0right0"/>
    </vehicle>
    <vehicle id="79" type="passenger" depart="42.70">
        <route edges="top0A0.250.00"/>
    </vehicle>
    <vehicle id="81" type="passenger" depart="43.20">
        <route edges="left0A0 left0A0.250.00 A0top0"/>
    </vehicle>
    <vehicle id="83" type="passenger" depart="43.85">
        <route edges="left0A0.250.00 A0right0"/>
    </vehicle>
    <vehicle id="87" type="passenger" depart="46.00">
        <route edges="top0A0 top0A0.250.00"/>
    </vehicle>
    <vehicle id="88" type="passenger" depart="46.15">
        <route edges="left0A0.250.00 A0bottom0"/>
    </vehicle>
    <vehicle id="89" type="passenger" depart="46.70">
        <route edges="right0A0.250.00 A0left0"/>
    </vehicle>
    <vehicle id="91" type="passenger" depart="47.35">
        <route edges="right0A0.250.00 A0top0"/>
    </vehicle>
    <vehicle id="92" type="passenger" depart="48.20">
        <route edges="bottom0A0.250.00 A0top0"/>
    </vehicle>
    <vehicle id="93" type="passenger" depart="48.45">
        <route edges="top0A0 top0A0.250.00 A0left0"/>
    </vehicle>
    <vehicle id="94" type="passenger" depart="48.55">
        <route edges="right0A0.250.00 A0top0"/>
    </vehicle>
    <vehicle id="103" type="passenger" depart="51.50">
        <route edges="right0A0 right0A0.250.00 A0left0"/>
    </vehicle>
    <vehicle id="104" type="passenger" depart="51.60">
        <route edges="top0A0.250.00 A0bottom0"/>
    </vehicle>
    <vehicle id="107" type="passenger" depart="52.80">
        <route edges="left0A0 left0A0.250.00"/>
    </vehicle>
    <vehicle id="108" type="passenger" depart="53.05">
        <route edges="top0A0.250.00"/>
    </vehicle>
    <vehicle id="112" type="passenger" depart="55.90">
        <route edges="right0A0 right0A0.250.00 A0top0"/>
    </vehicle>
    <vehicle id="113" type="passenger" depart="56.10">
        <route edges="left0A0.250.00 A0right0"/>
    </vehicle>
    <vehicle id="115" type="passenger" depart="56.45">
        <route edges="left0A0 left0A0.250.00 A0right0"/>
    </vehicle>
    <vehicle id="116" type="passenger" depart="56.50">
        <route edges="bottom0A0 bottom0A0.250.00 A0left0"/>
    </vehicle>
    <vehicle id="117" type="passenger" depart="56.75">
        <route edges="left0A0.250.00 A0bottom0"/>
    </vehicle>
    <vehicle id="118" type="passenger" depart="56.80">
        <route edges="bottom0A0.250.00 A0left0"/>
    </vehicle>
    <vehicle id="119" type="passenger" depart="57.05">
        <route edges="left0A0.250.00"/>
    </vehicle>
    <vehicle id="123" type="passenger" depart="58.05">
        <route edges="bottom0A0 bottom0A0.250.00 A0top0"/>
    </vehicle>
    <vehicle id="124" type="passenger" depart="59.30">
        <route edges="right0A0.250.00 A0top0"/>
    </vehicle>
    <vehicle id="126" type="passenger" depart="60.10">
        <route edges="right0A0.250.00 A0top0"/>
    </vehicle>
    <vehicle id="129" type="passenger" depart="60.40">
        <route edges="bottom0A0 bottom0A0.250.00 A0right0"/>
    </vehicle>
    <vehicle id="131" type="passenger" depart="63.60">
        <route edges="bottom0A0.250.00"/>
    </vehicle>
    <vehicle id="133" type="passenger" depart="64.80">
        <route edges="left0A0 left0A0.250.00 A0right0"/>
    </vehicle>
    <vehicle id="134" type="passenger" depart="66.15">
        <route edges="bottom0A0 bottom0A0.250.00 A0top0"/>
    </vehicle>
    <vehicle id="135" type="passenger" depart="67.35">
        <route edges="left0A0 left0A0.250.00 A0top0"/>
    </vehicle>
    <vehicle id="136" type="passenger" depart="67.70">
        <route edges="right0A0.250.00 A0top0"/>
    </vehicle>
    <vehicle id="141" type="passenger" depart="69.85">
        <route edges="left0A0.250.00 A0top0"/>
    </vehicle>
    <vehicle id="143" type="passenger" depart="70.85">
        <route edges="bottom0A0.250.00 A0right0"/>
    </vehicle>
    <vehicle id="146" type="passenger" depart="73.25">
        <route edges="left0A0 left0A0.250.00 A0bottom0"/>
    </vehicle>
    <vehicle id="148" type="passenger" depart="73.30">
        <route edges="left0A0.250.00"/>
    </vehicle>
    <vehicle id="149" type="passenger" depart="73.85">
        <route edges="left0A0 left0A0.250.00 A0bottom0"/>
    </vehicle>
    <vehicle id="150" type="passenger" depart="74.10">
        <route edges="right0A0 right0A0.250.00 A0top0"/>
    </vehicle>
    <vehicle id="153" type="passenger" depart="75.05">
        <route edges="bottom0A0.250.00 A0right0"/>
    </vehicle>
    <vehicle id="156" type="passenger" depart="78.10">
        <route edges="right0A0.250.00 A0top0"/>
    </vehicle>
    <vehicle id="158" type="passenger" depart="78.20">
        <route edges="left0A0.250.00 A0top0"/>
    </vehicle>
    <vehicle id="159" type="passenger" depart="78.45">
        <route edges="left0A0.250.00 A0right0"/>
    </vehicle>
    <vehicle id="160" type="passenger" depart="78.55">
        <route edges="right0A0 right0A0.250.00 A0top0"/>
    </vehicle>
    <vehicle id="161" type="passenger" depart="79.90">
        <route edges="right0A0.250.00"/>
    </vehicle>
    <vehicle id="163" type="passenger" depart="80.75">
        <route edges="bottom0A0.250.00 A0right0"/>
    </vehicle>
    <vehicle id="165" type="passenger" depart="81.35">
        <route edges="top0A0.250.00"/>
    </vehicle>
    <vehicle id="167" type="passenger" depart="81.55">
        <route edges="bottom0A0.250.00 A0left0"/>
    </vehicle>
    <vehicle id="168" type="passenger" depart="81.90">
        <route edges="bottom0A0.250.00 A0left0"/>
    </vehicle>
    <vehicle id="169" type="passenger" depart="82.05">
        <route edges="top0A0.250.00 A0bottom0"/>
    </vehicle>
    <vehicle id="170" type="passenger" depart="82.05">
        <route edges="right0A0.250.00 A0bottom0"/>
    </vehicle>
    <vehicle id="171" type="passenger" depart="82.10">
        <route edges="top0A0.250.00 A0bottom0"/>
    </vehicle>
    <vehicle id="172" type="passenger" depart="82.60">
        <route edges="left0A0.250.00 A0right0"/>
    </vehicle>
    <vehicle id="174" type="passenger" depart="83.40">
        <route edges="bottom0A0 bottom0A0.250.00"/>
    </vehicle>
    <vehicle id="176" type="passenger" depart="83.70">
        <route edges="left0A0 left0A0.250.00 A0right0"/>
    </vehicle>
    <vehicle id="179" type="passenger" depart="83.85">
        <route edges="right0A0.250.00 A0left0"/>
    </vehicle>
    <vehicle id="184" type="passenger" depart="85.00">
        <route edges="left0A0.250.00 A0top0"/>
    </vehicle>
    <vehicle id="185" type="passenger" depart="85.30">
        <route edges="bottom0A0.250.00 A0top0"/>
    </vehicle>
    <vehicle id="186" type="passenger" depart="86.80">
        <route edges="top0A0 top0A0.250.00 A0right0"/>
    </vehicle>
    <vehicle id="187" type="passenger" depart="86.95">
        <route edges="top0A0.250.00 A0right0"/>
    </vehicle>
    <vehicle id="191" type="passenger" depart="89.25">
        <route edges="top0A0.250.00 A0bottom0"/>
    </vehicle>
    <vehicle id="195" type="passenger" depart="90.75">
        <route edges="left0A0.250.00 A0right0"/>
    </vehicle>
    <vehicle id="196" type="passenger" depart="90.90">
        <route edges="bottom0A0 bottom0A0.250.00 A0right0"/>
    </vehicle>
    <vehicle id="197" type="passenger" depart="91.05">
        <route edges="right0A0.250.00 A0top0"/>
    </vehicle>
    <vehicle id="198" type="passenger" depart="91.05">
        <route edges="right0A0.250.00 A0left0"/>
    </vehicle>
    <vehicle id="199" type="passenger" depart="91.65">
        <route edges="left0A0.250.00"/>
    </vehicle>
    <vehicle id="201" type="passenger" depart="92.65">
        <route edges="bottom0A0 bottom0A0.250.00 A0left0"/>
    </vehicle>
    <vehicle id="202" type="passenger" depart="93.15">
        <route edges="bottom0A0 bottom0A0.250.00 A0left0"/>
    </vehicle>
    <vehicle id="203" type="passenger" depart="93.30">
        <route edges="top0A0.250.00 A0bottom0"/>
    </vehicle>
    <vehicle id="204" type="passenger" depart="93.40">
        <route edges="top0A0.250.00 A0left0"/>
    </vehicle>
    <vehicle id="207" type="passenger" depart="95.60">
        <route edges="top0A0 top0A0.250.00 A0bottom0"/>
    </vehicle>
    <vehicle id="210" type="passenger" depart="96.50">
        <route edges="left0A0.250.00 A0bottom0"/>
    </vehicle>
    <vehicle id="211" type="passenger" depart="96.60">
        <route edges="bottom0A0.250.00 A0left0"/>
    </vehicle>
    <vehicle id="212" type="passenger" depart="97.05">
        <route edges="right0A0 right0A0.250.00 A0top0"/>
    </vehicle>
    <vehicle id="214" type="passenger" depart="98.00">
        <route edges="left0A0.250.00 A0bottom0"/>
    </vehicle>
    <vehicle id="215" type="passenger" depart="98.00">
        <route edges="top0A0.250.00 A0left0"/>
    </vehicle>
    <vehicle id="216" type="passenger" depart="98.15">
        <route edges="top0A0.250.00"/>
    </vehicle>
    <vehicle id="219" type="passenger" depart="100.00">
        <route edges="left0A0.250.00 A0right0"/>
    </vehicle>
    <vehicle id="220" type="passenger" depart="100.50">
        <route edges="right0A0 right0A0.250.00 A0bottom0"/>
    </vehicle>
    <vehicle id="221" type="passenger" depart="101.25">
        <route edges="left0A0.250.00"/>
    </vehicle>
    <vehicle id="223" type="passenger" depart="102.20">
        <route edges="right0A0.250.00 A0left0"/>
    </vehicle>
    <vehicle id="225" type="passenger" depart="102.85">
        <route edges="left0A0.250.00 A0bottom0"/>
    </vehicle>
    <vehicle id="227" type="passenger" depart="104.15">
        <route edges="bottom0A0.250.00 A0right0"/>
    </vehicle>
    <vehicle id="228" type="passenger" depart="104.50">
        <route edges="bottom0A0.250.00"/>
    </vehicle>
    <vehicle id="231" type="passenger" depart="105.80">
        <route edges="right0A0 right0A0.250.00 A0top0"/>
    </vehicle>
    <vehicle id="232" type="passenger" depart="106.40">
        <route edges="right0A0.250.00"/>
    </vehicle>
    <vehicle id="236" type="passenger" depart="108.70">
        <route edges="bottom0A0.250.00"/>
    </vehicle>
    <vehicle id="238" type="passenger" depart="110.35">
        <route edges="top0A0.250.00 A0left0"/>
    </vehicle>
    <vehicle id="241" type="passenger" depart="112.05">
        <route edges="bottom0A0 bottom0A0.250.00 A0top0"/>
    </vehicle>
    <vehicle id="242" type="passenger" depart="112.20">
        <route edges="top0A0 top0A0.250.00 A0bottom0"/>
    </vehicle>
    <vehicle id="246" type="passenger" depart="114.80">
        <route edges="right0A0 right0A0.250.00 A0bottom0"/>
    </vehicle>
    <vehicle id="248" type="passenger" depart="115.45">
        <route edges="left0A0.250.00 A0top0"/>
    </vehicle>
    <vehicle id="249" type="passenger" depart="115.75">
        <route edges="top0A0.250.00"/>
    </vehicle>
    <vehicle id="251" type="passenger" depart="115.90">
        <route edges="left0A0.250.00 A0top0"/>
    </vehicle>
    <vehicle id="258" type="passenger" depart="121.00">
        <route edges="bottom0A0 bottom0A0.250.00"/>
    </vehicle>
    <vehicle id="261" type="passenger" depart="121.80">
        <route edges="bottom0A0 bottom0A0.250.00 A0left0"/>
    </vehicle>
    <vehicle id="262" type="passenger" depart="122.60">
        <route edges="top0A0.250.00 A0right0"/>
    </vehicle>
    <vehicle id="265" type="passenger" depart="123.40">
        <route edges="bottom0A0.250.00 A0top0"/>
    </vehicle>
    <vehicle id="266" type="passenger" depart="123.40">
        <route edges="bottom0A0.250.00"/>
    </vehicle>
    <vehicle id="268" type="passenger" depart="125.55">
        <route edges="bottom0A0.250.00 A0left0"/>
    </vehicle>
    <vehicle id="269" type="passenger" depart="126.45">
        <route edges="right0A0 right0A0.250.00 A0left0"/>
    </vehicle>
    <vehicle id="270" type="passenger" depart="127.15">
        <route edges="top0A0.250.00 A0left0"/>
    </vehicle>
    <vehicle id="273" type="passenger" depart="128.90">
        <route edges="left0A0 left0A0.250.00 A0top0"/>
    </vehicle>
    <vehicle id="275" type="passenger" depart="129.75">
        <route edges="top0A0 top0A0.250.00 A0right0"/>
    </vehicle>
    <vehicle id="276" type="passenger" depart="130.20">
        <route edges="left0A0.250.00 A0top0"/>
    </vehicle>
    <vehicle id="277" type="passenger" depart="130.40">
        <route edges="top0A0 top0A0.250.00 A0bottom0"/>
    </vehicle>
    <vehicle id="278" type="passenger" depart="130.80">
        <route edges="top0A0 top0A0.250.00 A0left0"/>
    </vehicle>
    <vehicle id="279" type="passenger" depart="131.00">
        <route edges="bottom0A0 bottom0A0.250.00 A0left0"/>
    </vehicle>
    <vehicle id="280" type="passenger" depart="131.45">
        <route edges="bottom0A0 bottom0A0.250.00"/>
    </vehicle>
    <vehicle id="282" type="passenger" depart="132.05">
        <route edges="top0A0 top0A0.250.00 A0right0"/>
    </vehicle>
    <vehicle id="285" type="passenger" depart="134.00">
        <route edges="top0A0 top0A0.250.00 A0bottom0"/>
    </vehicle>
    <vehicle id="286" type="passenger" depart="134.05">
        <route edges="top0A0 top0A0.250.00 A0right0"/>
    </vehicle>
    <vehicle id="287" type="passenger" depart="135.30">
        <route edges="left0A0.250.00 A0top0"/>
    </vehicle>
    <vehicle id="294" type="passenger" depart="137.25">
        <route edges="right0A0 right0A0.250.00 A0bottom0"/>
    </vehicle>
    <vehicle id="297" type="passenger" depart="139.60">
        <route edges="left0A0 left0A0.250.00"/>
    </vehicle>
    <vehicle id="301" type="passenger" depart="141.15">
        <route edges="top0A0.250.00 A0left0"/>
    </vehicle>
    <vehicle id="304" type="passenger" depart="142.45">
        <route edges="left0A0.250.00"/>
    </vehicle>
    <vehicle id="305" type="passenger" depart="142.55">
        <route edges="left0A0.250.00"/>
    </vehicle>
    <vehicle id="306" type="passenger" depart="143.75">
        <route edges="right0A0 right0A0.250.00 A0top0"/>
    </vehicle>
    <vehicle id="308" type="passenger" depart="144.10">
        <route edges="bottom0A0 bottom0A0.250.00 A0top0"/>
    </vehicle>
    <vehicle id="310" type="passenger" depart="144.85">
        <route edges="left0A0 left0A0.250.00"/>
    </vehicle>
    <vehicle id="314" type="passenger" depart="148.40">
        <route edges="right0A0.250.00"/>
    </vehicle>
    <vehicle id="316" type="passenger" depart="149.50">
        <route edges="right0A0.250.00 A0top0"/>
    </vehicle>
    <vehicle id="319" type="passenger" depart="150.40">
        <route edges="bottom0A0.250.00"/>
    </vehicle>
    <vehicle id="322" type="passenger" depart="151.65">
        <route edges="top0A0.250.00 A0left0"/>
    </vehicle>
    <vehicle id="324" type="passenger" depart="154.00">
        <route edges="top0A0.250.00"/>
    </vehicle>
    <vehicle id="325" type="passenger" depart="154.05">
        <route edges="top0A0 top0A0.250.00 A0right0"/>
    </vehicle>
    <vehicle id="328" type="passenger" depart="154.50">
        <route edges="bottom0A0.250.00"/>
    </vehicle>
    <vehicle id="333" type="passenger" depart="157.55">
        <route edges="right0A0 right0A0.250.00 A0top0"/>
    </vehicle>
    <vehicle id="340" type="passenger" depart="159.75">
        <route edges="left0A0.250.00"/>
    </vehicle>
    <vehicle id="341" type="passenger" depart="159.95">
        <route edges="right0A0 right0A0.250.00"/>
    </vehicle>
    <vehicle id="343" type="passenger" depart="160.50">
        <route edges="right0A0.250.00 A0bottom0"/>
    </vehicle>
    <vehicle id="344" type="passenger" depart="161.05">
        <route edges="top0A0 top0A0.250.00 A0bottom0"/>
    </vehicle>
    <vehicle id="347" type="passenger" depart="162.40">
        <route edges="bottom0A0.250.00 A0left0"/>
    </vehicle>
    <vehicle id="348" type="passenger" depart="162.50">
        <route edges="bottom0A0.250.00 A0top0"/>
    </vehicle>
    <vehicle id="349" type="passenger" depart="162.90">
        <route edges="right0A0.250.00"/>
    </vehicle>
    <vehicle id="354" type="passenger" depart="166.10">
        <route edges="bottom0A0 bottom0A0.250.00 A0left0"/>
    </vehicle>
    <vehicle id="355" type="passenger" depart="166.30">
        <route edges="left0A0.250.00 A0bottom0"/>
    </vehicle>
    <vehicle id="356" type="passenger" depart="166.50">
        <route edges="right0A0.250.00 A0bottom0"/>
    </vehicle>
    <vehicle id="357" type="passenger" depart="166.50">
        <route edges="bottom0A0 bottom0A0.250.00 A0top0"/>
    </vehicle>
    <vehicle id="358" type="passenger" depart="167.20">
        <route edges="bottom0A0 bottom0A0.250.00 A0right0"/>
    </vehicle>
    <vehicle id="363" type="passenger" depart="168.55">
        <route edges="right0A0 right0A0.250.00 A0top0"/>
    </vehicle>
    <vehicle id="365" type="passenger" depart="170.35">
        <route edges="top0A0 top0A0.250.00 A0left0"/>
    </vehicle>
    <vehicle id="366" type="passenger" depart="171.00">
        <route edges="left0A0.250.00 A0bottom0"/>
    </vehicle>
    <vehicle id="368" type="passenger" depart="172.05">
        <route edges="bottom0A0.250.00 A0left0"/>
    </vehicle>
    <vehicle id="369" type="passenger" depart="172.15">
        <route edges="right0A0 right0A0.250.00 A0top0"/>
    </vehicle>
    <vehicle id="370" type="passenger" depart="172.50">
        <route edges="top0A0.250.00"/>
    </vehicle>
    <vehicle id="376" type="passenger" depart="175.00">
        <route edges="right0A0.250.00 A0left0"/>
    </vehicle>
    <vehicle id="378" type="passenger" depart="175.70">
        <route edges="right0A0.250.00 A0bottom0"/>
    </vehicle>
    <vehicle id="379" type="passenger" depart="176.35">
        <route edges="top0A0.250.00 A0left0"/>
    </vehicle>
    <vehicle id="380" type="passenger" depart="176.85">
        <route edges="left0A0 left0A0.250.00"/>
    </vehicle>
    <vehicle id="381" type="passenger" depart="176.95">
        <route edges="left0A0 left0A0.250.00 A0bottom0"/>
    </vehicle>
    <vehicle id="382" type="passenger" depart="177.10">
        <route edges="left0A0.250.00 A0bottom0"/>
    </vehicle>
    <vehicle id="383" type="passenger" depart="177.30">
        <route edges="right0A0.250.00"/>
    </vehicle>
    <vehicle id="385" type="passenger" depart="177.55">
        <route edges="bottom0A0 bottom0A0.250.00 A0right0"/>
    </vehicle>
    <vehicle id="386" type="passenger" depart="178.00">
        <route edges="bottom0A0.250.00 A0right0"/>
    </vehicle>
    <vehicle id="388" type="passenger" depart="178.95">
        <route edges="top0A0 top0A0.250.00 A0right0"/>
    </vehicle>
    <vehicle id="391" type="passenger" depart="179.75">
        <route edges="bottom0A0 bottom0A0.250.00 A0top0"/>
    </vehicle>
    <vehicle id="392" type="passenger" depart="179.95">
        <route edges="bottom0A0.250.00 A0right0"/>
    </vehicle>
    <vehicle id="393" type="passenger" depart="180.10">
        <route edges="top0A0 top0A0.250.00 A0right0"/>
    </vehicle>
    <vehicle id="394" type="passenger" depart="180.45">
        <route edges="right0A0 right0A0.250.00 A0bottom0"/>
    </vehicle>
    <vehicle id="395" type="passenger" depart="180.75">
        <route edges="right0A0.250.00 A0left0"/>
    </vehicle>
    <vehicle id="396" type="passenger" depart="181.25">
        <route edges="bottom0A0 bottom0A0.250.00"/>
    </vehicle>
    <vehicle id="400" type="passenger" depart="183.20">
        <route edges="top0A0 top0A0.250.00"/>
    </vehicle>
    <vehicle id="401" type="passenger" depart="184.35">
        <route edges="top0A0 top0A0.250.00 A0right0"/>
    </vehicle>
    <vehicle id="402" type="passenger" depart="184.95">
        <route edges="right0A0.250.00 A0top0"/>
    </vehicle>
    <vehicle id="406" type="passenger" depart="187.35">
        <route edges="bottom0A0.250.00"/>
    </vehicle>
    <vehicle id="409" type="passenger" depart="187.95">
        <route edges="top0A0.250.00 A0left0"/>
    </vehicle>
    <vehicle id="410" type="passenger" depart="188.15">
        <route edges="right0A0.250.00 A0top0"/>
    </vehicle>
    <vehicle id="411" type="passenger" depart="188.55">
        <route edges="left0A0.250.00 A0bottom0"/>
    </vehicle>
    <vehicle id="413" type="passenger" depart="188.75">
        <route edges="bottom0A0.250.00 A0top0"/>
    </vehicle>
    <vehicle id="416" type="passenger" depart="189.80">
        <route edges="right0A0.250.00 A0top0"/>
    </vehicle>
    <vehicle id="417" type="passenger" depart="192.25">
        <route edges="right0A0 right0A0.250.00 A0top0"/>
    </vehicle>
    <vehicle id="420" type="passenger" depart="193.40">
        <route edges="right0A0.250.00 A0top0"/>
    </vehicle>
    <vehicle id="421" type="passenger" depart="193.45">
        <route edges="top0A0.250.00"/>
    </vehicle>
    <vehicle id="422" type="passenger" depart="195.35">
        <route edges="right0A0 right0A0.250.00 A0bottom0"/>
    </vehicle>
    <vehicle id="423" type="passenger" depart="195.55">
        <route edges="left0A0.250.00 A0right0"/>
    </vehicle>
    <vehicle id="426" type="passenger" depart="196.15">
        <route edges="left0A0.250.00 A0right0"/>
    </vehicle>
    <vehicle id="429" type="passenger" depart="196.85">
        <route edges="top0A0.250.00"/>
    </vehicle>
    <vehicle id="432" type="passenger" depart="201.90">
        <route edges="bottom0A0 bottom0A0.250.00 A0right0"/>
    </vehicle>
    <vehicle id="434" type="passenger" depart="202.90">
        <route edges="top0A0 top0A0.250.00 A0left0"/>
    </vehicle>
    <vehicle id="437" type="passenger" depart="203.80">
        <route edges="left0A0 left0A0.250.00 A0right0"/>
    </vehicle>
    <vehicle id="441" type="passenger" depart="205.85">
        <route edges="right0A0.250.00 A0bottom0"/>
    </vehicle>
    <vehicle id="442" type="passenger" depart="206.70">
        <route edges="right0A0 right0A0.250.00 A0top0"/>
    </vehicle>
    <vehicle id="444" type="passenger" depart="208.25">
        <route edges="top0A0 top0A0.250.00 A0left0"/>
    </vehicle>
    <vehicle id="446" type="passenger" depart="209.50">
        <route edges="right0A0.250.00 A0bottom0"/>
    </vehicle>
    <vehicle id="447" type="passenger" depart="210.55">
        <route edges="left0A0.250.00 A0top0"/>
    </vehicle>
    <vehicle id="449" type="passenger" depart="211.75">
        <route edges="right0A0 right0A0.250.00 A0bottom0"/>
    </vehicle>
    <vehicle id="452" type="passenger" depart="212.95">
        <route edges="bottom0A0 bottom0A0.250.00 A0top0"/>
    </vehicle>
    <vehicle id="455" type="passenger" depart="215.15">
        <route edges="right0A0.250.00 A0top0"/>
    </vehicle>
    <vehicle id="456" type="passenger" depart="215.40">
        <route edges="bottom0A0 bottom0A0.250.00 A0top0"/>
    </vehicle>
    <vehicle id="457" type="passenger" depart="215.50">
        <route edges="bottom0A0.250.00 A0right0"/>
    </vehicle>