<?xml version="1.0" encoding="UTF-8"?>

<!-- generated on 2023-05-04 15:20:29.157766 by randomTrips.py UNKNOWN
<configuration>
    <net-file value="/home/franky3er/Documents/code/HieraGLight/scenarios/grid/3x3-150m/train/32-scenario/network.net.xml"/>
    <output-trip-file value="/home/franky3er/Documents/code/HieraGLight/scenarios/grid/3x3-150m/train/32-scenario/trips.trips.xml"/>
    <route-file value="/home/franky3er/Documents/code/HieraGLight/scenarios/grid/3x3-150m/train/32-scenario/routes.rou.xml"/>
    <end value="900.0"/>
    <random-depart value="True"/>
    <seed value="32"/>
    <random value="True"/>
    <vehicle-class value="passenger"/>
    <insertion-rate value="6000.0"/>
</configuration>
-->

<routes xmlns:xsi="http://www.w3.org/2001/XMLSchema-instance" xsi:noNamespaceSchemaLocation="http://sumo.dlr.de/xsd/routes_file.xsd">
    <vType id="passenger" vClass="passenger"/>
    <trip id="0" depart="0.00" from="bottom1B0.80.00" to="A2B2" type="passenger"/>
    <trip id="1" depart="0.00" from="A1A2" to="C2B2" type="passenger"/>
    <trip id="2" depart="0.60" from="B1B2.80.00" to="top1B2.80.00" type="passenger"/>
    <trip id="3" depart="1.20" from="B2B1.80.00" to="B0C0.80.00" type="passenger"/>
    <trip id="4" depart="2.20" from="B1A1" to="B1B2" type="passenger"/>
    <trip id="5" depart="2.40" from="A0A1.80.00" to="right0C0.80.00" type="passenger"/>
    <trip id="6" depart="5.00" from="B2A2.80.00" to="C0B0.80.00" type="passenger"/>
    <trip id="7" depart="5.40" from="C2C1.80.00" to="B2C2.80.00" type="passenger"/>
    <trip id="8" depart="5.80" from="B2B1.80.00" to="top0A2.80.00" type="passenger"/>
    <trip id="9" depart="5.80" from="B1B0.80.00" to="B1B0" type="passenger"/>
    <trip id="10" depart="6.00" from="A2B2" to="A0A1" type="passenger"/>
    <trip id="11" depart="6.40" from="top0A2.80.00" to="C2right2" type="passenger"/>
    <trip id="12" depart="6.40" from="bottom1B0" to="C1B1.80.00" type="passenger"/>
    <trip id="13" depart="6.60" from="B0C0.80.00" to="A1left1" type="passenger"/>
    <trip id="14" depart="7.00" from="B0C0.80.00" to="left0A0.80.00" type="passenger"/>
    <trip id="15" depart="7.20" from="right2C2" to="bottom2C0.80.00" type="passenger"/>
    <trip id="16" depart="7.40" from="bottom2C0" to="bottom0A0.80.00" type="passenger"/>
    <trip id="17" depart="7.60" from="C0B0" to="A2B2" type="passenger"/>
    <trip id="18" depart="8.00" from="A2B2" to="A0left0" type="passenger"/>
    <trip id="19" depart="8.60" from="C0C1" to="C1C0.80.00" type="passenger"/>
    <trip id="20" depart="10.00" from="B0C0" to="C0C1" type="passenger"/>
    <trip id="21" depart="10.20" from="B1B2.80.00" to="B0B1.80.00" type="passenger"/>
    <trip id="22" depart="10.40" from="A0B0" to="C2C1.80.00" type="passenger"/>
    <trip id="23" depart="10.80" from="C1C0" to="C1B1" type="passenger"/>
    <trip id="24" depart="11.00" from="B1B2" to="A1A2" type="passenger"/>
    <trip id="25" depart="11.20" from="bottom1B0" to="right0C0.80.00" type="passenger"/>
    <trip id="26" depart="11.60" from="right1C1" to="right2C2.80.00" type="passenger"/>
    <trip id="27" depart="12.40" from="left1A1.80.00" to="C0B0.80.00" type="passenger"/>
    <trip id="28" depart="13.00" from="right1C1.80.00" to="A2A1.80.00" type="passenger"/>
    <trip id="29" depart="13.60" from="A2A1" to="C2C1" type="passenger"/>
    <trip id="30" depart="13.60" from="B0A0.80.00" to="C0bottom2" type="passenger"/>
    <trip id="31" depart="13.80" from="A0B0" to="B2C2.80.00" type="passenger"/>
    <trip id="32" depart="13.80" from="bottom0A0" to="B2B1.80.00" type="passenger"/>
    <trip id="33" depart="14.40" from="C1B1.80.00" to="C1C0" type="passenger"/>
    <trip id="34" depart="14.60" from="C0C1.80.00" to="A1A2.80.00" type="passenger"/>
    <trip id="35" depart="14.60" from="B2A2" to="left1A1.80.00" type="passenger"/>
    <trip id="36" depart="14.60" from="C2B2" to="B1A1" type="passenger"/>
    <trip id="37" depart="14.80" from="left1A1" to="B2A2" type="passenger"/>
    <trip id="38" depart="16.20" from="B1B0.80.00" to="B2C2" type="passenger"/>
    <trip id="39" depart="17.00" from="top0A2.80.00" to="C0right0" type="passenger"/>
    <trip id="40" depart="17.00" from="A1A0.80.00" to="C2C1.80.00" type="passenger"/>
    <trip id="41" depart="18.00" from="top2C2.80.00" to="B0bottom1" type="passenger"/>
    <trip id="42" depart="18.80" from="B1B2.80.00" to="B0B1" type="passenger"/>
    <trip id="43" depart="19.20" from="C1C0" to="A0left0" type="passenger"/>
    <trip id="44" depart="19.60" from="C1C2.80.00" to="A2left2" type="passenger"/>
    <trip id="45" depart="19.80" from="bottom0A0.80.00" to="right0C0.80.00" type="passenger"/>
    <trip id="46" depart="20.20" from="A1B1.80.00" to="B0B1" type="passenger"/>
    <trip id="47" depart="20.20" from="C2C1.80.00" to="A2left2" type="passenger"/>
    <trip id="48" depart="20.60" from="left0A0.80.00" to="A0B0" type="passenger"/>
    <trip id="49" depart="20.80" from="B1B2" to="left2A2.80.00" type="passenger"/>
    <trip id="50" depart="22.20" from="right1C1" to="C2right2" type="passenger"/>
    <trip id="51" depart="23.00" from="B0A0.80.00" to="B2A2" type="passenger"/>
    <trip id="52" depart="23.60" from="B0B1.80.00" to="A1left1" type="passenger"/>
    <trip id="53" depart="23.80" from="right2C2" to="A1A2.80.00" type="passenger"/>
    <trip id="54" depart="24.40" from="right1C1" to="A1A0.80.00" type="passenger"/>
    <trip id="55" depart="24.60" from="left0A0.80.00" to="C0B0" type="passenger"/>
    <trip id="56" depart="24.60" from="bottom1B0.80.00" to="C1right1" type="passenger"/>
    <trip id="57" depart="24.80" from="bottom2C0.80.00" to="left0A0.80.00" type="passenger"/>
    <trip id="58" depart="25.20" from="left0A0.80.00" to="B0B1" type="passenger"/>
    <trip id="59" depart="25.60" from="left0A0" to="B2B1.80.00" type="passenger"/>
    <trip id="60" depart="26.80" from="A1A2.80.00" to="C1B1.80.00" type="passenger"/>
    <trip id="61" depart="27.60" from="C0C1" to="C2right2" type="passenger"/>
    <trip id="62" depart="29.60" from="top2C2" to="B2B1.80.00" type="passenger"/>
    <trip id="63" depart="29.80" from="B1C1" to="C2right2" type="passenger"/>
    <trip id="64" depart="30.00" from="top0A2" to="B0A0.80.00" type="passenger"/>
    <trip id="65" depart="30.40" from="B1A1.80.00" to="A0B0" type="passenger"/>
    <trip id="66" depart="30.80" from="left2A2" to="B0bottom1" type="passenger"/>
    <trip id="67" depart="31.00" from="bottom1B0" to="B0B1" type="passenger"/>
    <trip id="68" depart="31.60" from="B1A1.80.00" to="A2left2" type="passenger"/>
    <trip id="69" depart="32.00" from="B0C0" to="B1C1" type="passenger"/>
    <trip id="70" depart="32.20" from="A1A2" to="C0C1.80.00" type="passenger"/>
    <trip id="71" depart="32.20" from="B1B2" to="top1B2.80.00" type="passenger"/>
    <trip id="72" depart="33.60" from="bottom0A0.80.00" to="B0A0.80.00" type="passenger"/>
    <trip id="73" depart="33.60" from="bottom0A0.80.00" to="C0B0" type="passenger"/>
    <trip id="74" depart="33.80" from="B0A0" to="B0bottom1" type="passenger"/>
    <trip id="75" depart="34.00" from="B1C1" to="top1B2.80.00" type="passenger"/>
    <trip id="76" depart="35.00" from="top2C2" to="B0C0" type="passenger"/>
    <trip id="77" depart="36.00" from="B0A0.80.00" to="B0C0" type="passenger"/>
    <trip id="78" depart="36.00" from="B2C2" to="left2A2.80.00" type="passenger"/>
    <trip id="79" depart="36.20" from="B1A1" to="A0left0" type="passenger"/>
    <trip id="80" depart="37.00" from="right1C1.80.00" to="C2top2" type="passenger"/>
    <trip id="81" depart="37.40" from="B2B1" to="bottom2C0.80.00" type="passenger"/>
    <trip id="82" depart="37.60" from="right1C1.80.00" to="B2C2.80.00" type="passenger"/>
    <trip id="83" depart="38.40" from="A1A0" to="left0A0.80.00" type="passenger"/>
    <trip id="84" depart="38.60" from="B2C2" to="left0A0.80.00" type="passenger"/>
    <trip id="85" depart="38.80" from="bottom0A0" to="B0B1" type="passenger"/>
    <trip id="86" depart="40.00" from="B0A0" to="C0B0.80.00" type="passenger"/>
    <trip id="87" depart="40.40" from="B0C0" to="A1left1" type="passenger"/>
    <trip id="88" depart="40.80" from="A2A1" to="bottom0A0.80.00" type="passenger"/>
    <trip id="89" depart="41.20" from="right0C0" to="B2A2" type="passenger"/>
    <trip id="90" depart="41.20" from="B2B1.80.00" to="A1A0.80.00" type="passenger"/>
    <trip id="91" depart="44.80" from="bottom1B0.80.00" to="B2C2" type="passenger"/>
    <trip id="92" depart="46.00" from="C0C1.80.00" to="A1B1" type="passenger"/>
    <trip id="93" depart="46.20" from="C1C0.80.00" to="A1A2.80.00" type="passenger"/>
    <trip id="94" depart="46.40" from="A1A0" to="C2B2.80.00" type="passenger"/>
    <trip id="95" depart="46.40" from="C1C2" to="top2C2.80.00" type="passenger"/>
    <trip id="96" depart="46.60" from="A1A0" to="B1B2" type="passenger"/>
    <trip id="97" depart="47.40" from="left0A0.80.00" to="A1A0.80.00" type="passenger"/>
    <trip id="98" depart="47.60" from="top2C2.80.00" to="A0left0" type="passenger"/>
    <trip id="99" depart="47.80" from="A1A2" to="A1B1" type="passenger"/>
    <trip id="100" depart="48.20" from="bottom2C0" to="A1B1.80.00" type="passenger"/>
    <trip id="101" depart="50.80" from="C0C1" to="C2B2" type="passenger"/>
    <trip id="102" depart="52.20" from="right2C2" to="A0B0.80.00" type="passenger"/>
    <trip id="103" depart="52.80" from="A1B1" to="top1B2.80.00" type="passenger"/>
    <trip id="104" depart="53.00" from="B1B0.80.00" to="C2C1" type="passenger"/>
    <trip id="105" depart="53.40" from="C1B1" to="B0A0" type="passenger"/>
    <trip id="106" depart="53.80" from="B2C2.80.00" to="left2A2.80.00" type="passenger"/>
    <trip id="107" depart="54.00" from="A1B1.80.00" to="A1B1" type="passenger"/>
    <trip id="108" depart="55.40" from="A0A1" to="A0bottom0" type="passenger"/>
    <trip id="109" depart="55.40" from="top0A2" to="B1A1" type="passenger"/>
    <trip id="110" depart="55.80" from="left1A1" to="bottom1B0.80.00" type="passenger"/>
    <trip id="111" depart="56.40" from="C0C1" to="left0A0.80.00" type="passenger"/>
    <trip id="112" depart="57.60" from="C0C1" to="A2left2" type="passenger"/>
    <trip id="113" depart="57.80" from="C1C0" to="B1A1" type="passenger"/>
    <trip id="114" depart="60.00" from="B0C0.80.00" to="A2A1" type="passenger"/>
    <trip id="115" depart="62.00" from="C0B0" to="A0B0" type="passenger"/>
    <trip id="116" depart="62.80" from="left0A0.80.00" to="B0B1" type="passenger"/>
    <trip id="117" depart="62.80" from="left1A1" to="bottom1B0.80.00" type="passenger"/>
    <trip id="118" depart="63.60" from="B1B2" to="B0C0" type="passenger"/>
    <trip id="119" depart="63.80" from="top0A2.80.00" to="C1C0" type="passenger"/>
    <trip id="120" depart="64.60" from="left1A1.80.00" to="right1C1.80.00" type="passenger"/>
    <trip id="121" depart="64.60" from="left0A0.80.00" to="B1A1.80.00" type="passenger"/>
    <trip id="122" depart="64.60" from="B2B1" to="A1A2.80.00" type="passenger"/>
    <trip id="123" depart="65.40" from="A1A0" to="C2C1.80.00" type="passenger"/>
    <trip id="124" depart="65.40" from="top1B2.80.00" to="A0bottom0" type="passenger"/>
    <trip id="125" depart="65.80" from="bottom2C0" to="left1A1.80.00" type="passenger"/>
    <trip id="126" depart="66.20" from="left1A1.80.00" to="right1C1.80.00" type="passenger"/>
    <trip id="127" depart="67.80" from="B1B2" to="B1A1.80.00" type="passenger"/>
    <trip id="128" depart="68.00" from="B2A2.80.00" to="right2C2.80.00" type="passenger"/>
    <trip id="129" depart="68.80" from="right2C2" to="C0C1.80.00" type="passenger"/>
    <trip id="130" depart="69.20" from="B0B1" to="right1C1.80.00" type="passenger"/>
    <trip id="131" depart="70.40" from="bottom2C0" to="B1A1.80.00" type="passenger"/>
    <trip id="132" depart="72.40" from="C1C0.80.00" to="A1B1" type="passenger"/>
    <trip id="133" depart="72.80" from="right1C1.80.00" to="B1C1.80.00" type="passenger"/>
    <trip id="134" depart="73.60" from="C0C1.80.00" to="A0left0" type="passenger"/>
    <trip id="135" depart="74.00" from="A0A1.80.00" to="B1A1" type="passenger"/>
    <trip id="136" depart="74.40" from="B1B0" to="B2C2" type="passenger"/>
    <trip id="137" depart="74.80" from="B1C1.80.00" to="top1B2.80.00" type="passenger"/>
    <trip id="138" depart="75.20" from="A2A1" to="A1A0.80.00" type="passenger"/>
    <trip id="139" depart="75.80" from="B0C0" to="C0right0" type="passenger"/>
    <trip id="140" depart="76.00" from="A2B2.80.00" to="C0right0" type="passenger"/>
    <trip id="141" depart="79.80" from="bottom1B0" to="left1A1.80.00" type="passenger"/>
    <trip id="142" depart="79.80" from="A1B1" to="C0right0" type="passenger"/>
    <trip id="143" depart="81.00" from="B1B0.80.00" to="A0bottom0" type="passenger"/>
    <trip id="144" depart="81.60" from="top1B2" to="B0B1" type="passenger"/>
    <trip id="145" depart="81.60" from="bottom2C0" to="C0C1" type="passenger"/>
    <trip id="146" depart="81.80" from="bottom0A0.80.00" to="A2top0" type="passenger"/>
    <trip id="147" depart="81.80" from="top1B2.80.00" to="A0B0" type="passenger"/>
    <trip id="148" depart="82.00" from="B1A1.80.00" to="C2C1.80.00" type="passenger"/>
    <trip id="149" depart="82.80" from="right0C0" to="right1C1.80.00" type="passenger"/>
    <trip id="150" depart="83.00" from="right0C0.80.00" to="C1C0.80.00" type="passenger"/>
    <trip id="151" depart="83.60" from="A2A1.80.00" to="B2B1" type="passenger"/>
    <trip id="152" depart="84.00" from="A1A0.80.00" to="C2C1" type="passenger"/>
    <trip id="153" depart="84.00" from="left1A1.80.00" to="top0A2.80.00" type="passenger"/>
    <trip id="154" depart="84.60" from="B2A2.80.00" to="A2A1.80.00" type="passenger"/>
    <trip id="155" depart="85.60" from="A0B0.80.00" to="B2C2" type="passenger"/>
    <trip id="156" depart="85.80" from="A0A1" to="C2top2" type="passenger"/>
    <trip id="157" depart="88.00" from="top0A2.80.00" to="C1B1" type="passenger"/>
    <trip id="158" depart="88.80" from="right0C0.80.00" to="A0left0" type="passenger"/>
    <trip id="159" depart="88.80" from="C1C2.80.00" to="A1left1" type="passenger"/>
    <trip id="160" depart="89.20" from="A0B0.80.00" to="C0C1" type="passenger"/>
    <trip id="161" depart="90.60" from="B1C1" to="left2A2.80.00" type="passenger"/>
    <trip id="162" depart="91.20" from="top2C2" to="C2C1.80.00" type="passenger"/>
    <trip id="163" depart="91.20" from="bottom0A0" to="A0A1" type="passenger"/>
    <trip id="164" depart="91.80" from="right0C0.80.00" to="C1C2" type="passenger"/>
    <trip id="165" depart="91.80" from="A1A0" to="B1C1.80.00" type="passenger"/>
    <trip id="166" depart="92.80" from="B0C0.80.00" to="B2A2.80.00" type="passenger"/>
    <trip id="167" depart="94.20" from="C2C1" to="A1A0.80.00" type="passenger"/>
    <trip id="168" depart="95.20" from="B2A2" to="B0B1.80.00" type="passenger"/>
    <trip id="169" depart="95.20" from="B2A2" to="C2C1" type="passenger"/>
    <trip id="170" depart="95.80" from="C0C1.80.00" to="top2C2.80.00" type="passenger"/>
    <trip id="171" depart="95.80" from="B1C1" to="B1A1" type="passenger"/>
    <trip id="172" depart="96.00" from="left0A0.80.00" to="B1B2.80.00" type="passenger"/>
    <trip id="173" depart="97.00" from="right2C2" to="C1C0" type="passenger"/>
    <trip id="174" depart="97.00" from="C0B0.80.00" to="A2left2" type="passenger"/>
    <trip id="175" depart="97.40" from="left2A2" to="top0A2.80.00" type="passenger"/>
    <trip id="176" depart="97.60" from="top0A2" to="top0A2.80.00" type="passenger"/>
    <trip id="177" depart="97.80" from="A2A1" to="C1C0.80.00" type="passenger"/>
    <trip id="178" depart="98.80" from="bottom0A0" to="C0B0" type="passenger"/>
    <trip id="179" depart="99.20" from="B1B0" to="A0bottom0" type="passenger"/>
    <trip id="180" depart="99.20" from="B0B1.80.00" to="A1B1.80.00" type="passenger"/>
    <trip id="181" depart="99.40" from="B2B1" to="C2top2" type="passenger"/>
    <trip id="182" depart="99.80" from="A2B2" to="B2B1" type="passenger"/>
    <trip id="183" depart="100.00" from="B2A2.80.00" to="right2C2.80.00" type="passenger"/>
    <trip id="184" depart="100.00" from="C1C0.80.00" to="B2top1" type="passenger"/>
    <trip id="185" depart="100.20" from="B1A1.80.00" to="top2C2.80.00" type="passenger"/>
    <trip id="186" depart="100.80" from="top2C2.80.00" to="B1C1" type="passenger"/>
    <trip id="187" depart="101.20" from="left1A1.80.00" to="C1C0.80.00" type="passenger"/>
    <trip id="188" depart="102.60" from="A2B2" to="C0right0" type="passenger"/>
    <trip id="189" depart="102.80" from="C1C2.80.00" to="C0B0.80.00" type="passenger"/>
    <trip id="190" depart="103.00" from="B0C0.80.00" to="B1A1" type="passenger"/>
    <trip id="191" depart="103.20" from="B2B1.80.00" to="C0bottom2" type="passenger"/>
    <trip id="192" depart="103.20" from="bottom0A0.80.00" to="B2C2" type="passenger"/>
    <trip id="193" depart="103.60" from="left0A0.80.00" to="B2A2" type="passenger"/>
    <trip id="194" depart="103.80" from="B1B2" to="A0left0" type="passenger"/>
    <trip id="195" depart="104.00" from="top2C2" to="B1B0.80.00" type="passenger"/>
    <trip id="196" depart="104.20" from="B1C1" to="top0A2.80.00" type="passenger"/>
    <trip id="197" depart="105.60" from="C0B0" to="C1right1" type="passenger"/>
    <trip id="198" depart="106.60" from="B0B1" to="C1C2.80.00" type="passenger"/>
    <trip id="199" depart="108.00" from="C1B1" to="C0bottom2" type="passenger"/>
    <trip id="200" depart="109.00" from="B0A0.80.00" to="B0bottom1" type="passenger"/>
    <trip id="201" depart="109.80" from="right0C0.80.00" to="B1A1" type="passenger"/>
    <trip id="202" depart="110.20" from="C1C0" to="B0B1" type="passenger"/>
    <trip id="203" depart="110.60" from="C2B2" to="C0bottom2" type="passenger"/>
    <trip id="204" depart="110.80" from="B2B1.80.00" to="A0B0.80.00" type="passenger"/>
    <trip id="205" depart="111.20" from="B1C1.80.00" to="B2C2" type="passenger"/>
    <trip id="206" depart="111.60" from="B0C0.80.00" to="C0bottom2" type="passenger"/>
    <trip id="207" depart="111.80" from="C0C1" to="A0A1.80.00" type="passenger"/>
    <trip id="208" depart="112.60" from="B1B0" to="right2C2.80.00" type="passenger"/>
    <trip id="209" depart="113.60" from="B1B2" to="C2B2.80.00" type="passenger"/>
    <trip id="210" depart="114.20" from="C1C0" to="B1B0" type="passenger"/>
    <trip id="211" depart="116.40" from="A1A0.80.00" to="C2B2" type="passenger"/>
    <trip id="212" depart="116.80" from="top2C2.80.00" to="top2C2.80.00" type="passenger"/>
    <trip id="213" depart="117.60" from="right0C0" to="C2top2" type="passenger"/>
    <trip id="214" depart="118.40" from="right2C2" to="left0A0.80.00" type="passenger"/>
    <trip id="215" depart="121.20" from="B1A1" to="A1B1.80.00" type="passenger"/>
    <trip id="216" depart="121.40" from="top2C2" to="A0B0.80.00" type="passenger"/>
    <trip id="217" depart="122.00" from="bottom1B0.80.00" to="B0B1" type="passenger"/>
    <trip id="218" depart="124.00" from="C1C2" to="B0C0.80.00" type="passenger"/>
    <trip id="219" depart="124.80" from="B2A2.80.00" to="C1C0.80.00" type="passenger"/>
    <trip id="220" depart="125.20" from="C1B1.80.00" to="left2A2.80.00" type="passenger"/>
    <trip id="221" depart="126.00" from="B1A1" to="right2C2.80.00" type="passenger"/>
    <trip id="222" depart="128.80" from="C1B1" to="C1right1" type="passenger"/>
    <trip id="223" depart="129.40" from="A2A1.80.00" to="bottom1B0.80.00" type="passenger"/>
    <trip id="224" depart="129.80" from="B1C1.80.00" to="A1B1" type="passenger"/>
    <trip id="225" depart="130.00" from="C1C0.80.00" to="bottom0A0.80.00" type="passenger"/>
    <trip id="226" depart="130.40" from="bottom1B0" to="A2A1" type="passenger"/>
    <trip id="227" depart="131.20" from="right1C1.80.00" to="A1B1.80.00" type="passenger"/>
    <trip id="228" depart="131.40" from="top1B2.80.00" to="A2A1" type="passenger"/>
    <trip id="229" depart="131.80" from="B1C1.80.00" to="C1right1" type="passenger"/>
    <trip id="230" depart="132.80" from="A1A2" to="B1A1.80.00" type="passenger"/>
    <trip id="231" depart="134.00" from="A1B1.80.00" to="C2C1.80.00" type="passenger"/>
    <trip id="232" depart="135.80" from="left0A0" to="B0C0" type="passenger"/>
    <trip id="233" depart="136.00" from="C0B0.80.00" to="left0A0.80.00" type="passenger"/>
    <trip id="234" depart="136.40" from="B1B2.80.00" to="B2C2" type="passenger"/>
    <trip id="235" depart="136.40" from="top1B2" to="top2C2.80.00" type="passenger"/>
    <trip id="236" depart="136.60" from="B1B0" to="B1A1" type="passenger"/>
    <trip id="237" depart="138.40" from="right0C0" to="A2top0" type="passenger"/>
    <trip id="238" depart="138.80" from="A0A1" to="B1B2" type="passenger"/>
    <trip id="239" depart="139.00" from="right1C1.80.00" to="B0B1.80.00" type="passenger"/>
    <trip id="240" depart="139.40" from="B2A2" to="C0B0.80.00" type="passenger"/>
    <trip id="241" depart="141.20" from="B1B0" to="C2B2.80.00" type="passenger"/>
    <trip id="242" depart="141.60" from="left0A0.80.00" to="A0A1" type="passenger"/>
    <trip id="243" depart="142.00" from="A0A1" to="C1B1.80.00" type="passenger"/>
    <trip id="244" depart="143.40" from="top0A2" to="B0C0" type="passenger"/>
    <trip id="245" depart="144.80" from="A1A0" to="A2A1.80.00" type="passenger"/>
    <trip id="246" depart="145.20" from="C2C1.80.00" to="B2B1.80.00" type="passenger"/>
    <trip id="247" depart="145.40" from="A1B1" to="C1C0.80.00" type="passenger"/>
    <trip id="248" depart="145.40" from="A1A0" to="B2top1" type="passenger"/>
    <trip id="249" depart="145.80" from="A1A2" to="C2right2" type="passenger"/>
    <trip id="250" depart="147.00" from="B0A0.80.00" to="left1A1.80.00" type="passenger"/>
    <trip id="251" depart="148.00" from="B2A2.80.00" to="C1B1.80.00" type="passenger"/>
    <trip id="252" depart="148.40" from="B1B0" to="B2top1" type="passenger"/>
    <trip id="253" depart="148.80" from="A0B0.80.00" to="C2C1.80.00" type="passenger"/>
    <trip id="254" depart="149.60" from="B1B0" to="A1left1" type="passenger"/>
    <trip id="255" depart="150.60" from="B0C0.80.00" to="B1B0" type="passenger"/>
    <trip id="256" depart="150.80" from="C0C1.80.00" to="A0B0.80.00" type="passenger"/>
    <trip id="257" depart="151.20" from="B2B1.80.00" to="B2A2" type="passenger"/>
    <trip id="258" depart="151.40" from="A1A2.80.00" to="A1A0" type="passenger"/>
    <trip id="259" depart="152.00" from="A2A1.80.00" to="C0B0.80.00" type="passenger"/>
    <trip id="260" depart="153.40" from="B0C0.80.00" to="C2top2" type="passenger"/>
    <trip id="261" depart="153.80" from="A2A1.80.00" to="C0C1.80.00" type="passenger"/>
    <trip id="262" depart="154.20" from="C1B1.80.00" to="C1C0" type="passenger"/>
    <trip id="263" depart="154.40" from="C0B0.80.00" to="C1C2" type="passenger"/>
    <trip id="264" depart="154.60" from="C1C0.80.00" to="B0B1.80.00" type="passenger"/>
    <trip id="265" depart="154.80" from="A1B1" to="A0bottom0" type="passenger"/>
    <trip id="266" depart="155.40" from="bottom1B0" to="B1B0" type="passenger"/>
    <trip id="267" depart="155.80" from="C1C2" to="B0A0.80.00" type="passenger"/>
    <trip id="268" depart="157.40" from="C0B0.80.00" to="C2B2.80.00" type="passenger"/>
    <trip id="269" depart="158.20" from="A1A2" to="A0A1" type="passenger"/>
    <trip id="270" depart="158.80" from="left0A0" to="A0B0" type="passenger"/>
    <trip id="271" depart="160.40" from="C0C1.80.00" to="A1A2" type="passenger"/>
    <trip id="272" depart="160.40" from="left1A1.80.00" to="A2top0" type="passenger"/>
    <trip id="273" depart="160.60" from="top2C2" to="C1right1" type="passenger"/>
    <trip id="274" depart="161.20" from="bottom0A0" to="B0B1.80.00" type="passenger"/>
    <trip id="275" depart="161.40" from="C1C2" to="bottom1B0.80.00" type="passenger"/>
    <trip id="276" depart="161.60" from="bottom1B0" to="A0A1" type="passenger"/>
    <trip id="277" depart="162.00" from="C1C0" to="B0A0.80.00" type="passenger"/>
    <trip id="278" depart="162.60" from="A0A1" to="C2right2" type="passenger"/>
    <trip id="279" depart="162.60" from="left2A2.80.00" to="A0A1" type="passenger"/>
    <trip id="280" depart="162.80" from="bottom2C0.80.00" to="B0B1" type="passenger"/>
    <trip id="281" depart="163.00" from="B2C2.80.00" to="B1A1" type="passenger"/>
    <trip id="282" depart="163.60" from="top0A2.80.00" to="B1C1" type="passenger"/>
    <trip id="283" depart="165.00" from="C2C1" to="C2right2" type="passenger"/>
    <trip id="284" depart="165.60" from="top2C2.80.00" to="B1C1" type="passenger"/>
    <trip id="285" depart="166.00" from="top0A2.80.00" to="C1C2.80.00" type="passenger"/>
    <trip id="286" depart="167.00" from="A0A1.80.00" to="top1B2.80.00" type="passenger"/>
    <trip id="287" depart="167.20" from="bottom1B0" to="B2B1.80.00" type="passenger"/>
    <trip id="288" depart="167.60" from="C1B1" to="C0right0" type="passenger"/>
    <trip id="289" depart="168.40" from="bottom0A0.80.00" to="C2top2" type="passenger"/>
    <trip id="290" depart="168.60" from="left0A0" to="B2C2" type="passenger"/>
    <trip id="291" depart="169.40" from="B0C0.80.00" to="B0A0" type="passenger"/>
    <trip id="292" depart="169.40" from="B2A2" to="C2top2" type="passenger"/>
    <trip id="293" depart="169.60" from="C1C0.80.00" to="left2A2.80.00" type="passenger"/>
    <trip id="294" depart="170.00" from="top1B2" to="A1A2" type="passenger"/>
    <trip id="295" depart="170.80" from="B1B0.80.00" to="C2B2.80.00" type="passenger"/>
    <trip id="296" depart="171.00" from="B0A0.80.00" to="A0A1" type="passenger"/>
    <trip id="297" depart="171.00" from="C0C1" to="B0B1.80.00" type="passenger"/>
    <trip id="298" depart="171.40" from="A0B0" to="B1A1" type="passenger"/>
    <trip id="299" depart="171.80" from="A2B2" to="C1C2" type="passenger"/>
    <trip id="300" depart="172.40" from="B1C1.80.00" to="B0bottom1" type="passenger"/>
    <trip id="301" depart="173.00" from="A0A1" to="B1C1.80.00" type="passenger"/>
    <trip id="302" depart="173.20" from="C0B0" to="B2A2" type="passenger"/>
    <trip id="303" depart="173.40" from="top1B2" to="left0A0.80.00" type="passenger"/>
    <trip id="304" depart="173.60" from="C1B1.80.00" to="B1B0" type="passenger"/>
    <trip id="305" depart="174.20" from="B1A1" to="B1A1.80.00" type="passenger"/>
    <trip id="306" depart="174.80" from="C1B1.80.00" to="A0left0" type="passenger"/>
    <trip id="307" depart="175.40" from="B0A0" to="A0B0" type="passenger"/>
    <trip id="308" depart="176.20" from="bottom1B0.80.00" to="right2C2.80.00" type="passenger"/>
    <trip id="309" depart="177.00" from="B2A2.80.00" to="A1left1" type="passenger"/>
    <trip id="310" depart="177.40" from="B2A2.80.00" to="A1B1.80.00" type="passenger"/>
    <trip id="311" depart="177.40" from="top0A2.80.00" to="B0C0" type="passenger"/>
    <trip id="312" depart="178.00" from="B1B2" to="A2A1.80.00" type="passenger"/>
    <trip id="313" depart="178.60" from="bottom0A0" to="B1A1" type="passenger"/>
    <trip id="314" depart="178.60" from="bottom1B0" to="B1A1.80.00" type="passenger"/>
    <trip id="315" depart="179.40" from="bottom0A0.80.00" to="A2left2" type="passenger"/>
    <trip id="316" depart="179.80" from="B1A1" to="A2top0" type="passenger"/>
    <trip id="317" depart="179.80" from="B0B1.80.00" to="right0C0.80.00" type="passenger"/>
    <trip id="318" depart="180.20" from="A2A1" to="B0B1.80.00" type="passenger"/>
    <trip id="319" depart="180.20" from="left1A1" to="C2B2" type="passenger"/>
    <trip id="320" depart="180.40" from="A1A2.80.00" to="bottom1B0.80.00" type="passenger"/>
    <trip id="321" depart="180.80" from="A2A1.80.00" to="B0A0" type="passenger"/>
    <trip id="322" depart="181.40" from="C1B1.80.00" to="A2B2.80.00" type="passenger"/>
    <trip id="323" depart="182.00" from="C1B1.80.00" to="C1right1" type="passenger"/>
    <trip id="324" depart="182.20" from="top1B2.80.00" to="top1B2.80.00" type="passenger"/>
    <trip id="325" depart="184.40" from="C1C2" to="C2right2" type="passenger"/>
    <trip id="326" depart="184.40" from="right0C0" to="C1C0" type="passenger"/>
    <trip id="327" depart="185.00" from="top2C2.80.00" to="A0B0" type="passenger"/>
    <trip id="328" depart="185.60" from="B1C1.80.00" to="A1A2.80.00" type="passenger"/>
    <trip id="329" depart="186.00" from="A1A2" to="A0left0" type="passenger"/>
    <trip id="330" depart="187.40" from="B2C2" to="A0B0.80.00" type="passenger"/>
    <trip id="331" depart="188.40" from="A1B1.80.00" to="C0B0.80.00" type="passenger"/>
    <trip id="332" depart="189.60" from="A1A2.80.00" to="A1A2" type="passenger"/>
    <trip id="333" depart="190.00" from="B1C1" to="A2B2" type="passenger"/>
    <trip id="334" depart="190.00" from="bottom2C0.80.00" to="B1C1.80.00" type="passenger"/>
    <trip id="335" depart="191.00" from="B1B2.80.00" to="C0B0" type="passenger"/>
    <trip id="336" depart="191.40" from="left2A2" to="B0A0.80.00" type="passenger"/>
    <trip id="337" depart="191.80" from="A1A0.80.00" to="B0C0.80.00" type="passenger"/>
    <trip id="338" depart="193.80" from="bottom1B0.80.00" to="left1A1.80.00" type="passenger"/>
    <trip id="339" depart="194.20" from="C2B2" to="right2C2.80.00" type="passenger"/>
    <trip id="340" depart="194.40" from="A1A2" to="B1B2.80.00" type="passenger"/>
    <trip id="341" depart="194.60" from="A0B0.80.00" to="B2A2" type="passenger"/>
    <trip id="342" depart="194.80" from="B2A2.80.00" to="B0B1.80.00" type="passenger"/>
    <trip id="343" depart="195.00" from="C0B0" to="A1A0" type="passenger"/>
    <trip id="344" depart="195.40" from="B1B2" to="C0bottom2" type="passenger"/>
    <trip id="345" depart="195.60" from="B0A0.80.00" to="B0A0.80.00" type="passenger"/>
    <trip id="346" depart="195.60" from="bottom2C0.80.00" to="C2B2.80.00" type="passenger"/>
    <trip id="347" depart="196.00" from="left2A2.80.00" to="C1right1" type="passenger"/>
    <trip id="348" depart="196.20" from="C2B2.80.00" to="B0C0.80.00" type="passenger"/>