<?xml version="1.0" encoding="UTF-8"?>

<!-- generated on 2023-02-12 18:46:31.854985 by randomTrips.py UNKNOWN
<configuration>
    <begin value="0"/>
    <end value="900"/>
    <insertion-rate value="12500.0"/>
    <net-file value="/home/franky3er/Documents/code/HieraGLight/scenarios/grid/5x5-150m/train/19-scenario/network.net.xml"/>
    <random value="True"/>
    <random-depart value="True"/>
    <route-file value="/home/franky3er/Documents/code/HieraGLight/scenarios/grid/5x5-150m/train/19-scenario/routes.rou.xml"/>
    <seed value="19"/>
    <output-trip-file value="/home/franky3er/Documents/code/HieraGLight/scenarios/grid/5x5-150m/train/19-scenario/trips.trips.xml"/>
    <vehicle-class value="passenger"/>
</configuration>
-->

<routes xmlns:xsi="http://www.w3.org/2001/XMLSchema-instance" xsi:noNamespaceSchemaLocation="http://sumo.dlr.de/xsd/routes_file.xsd">
    <vType id="passenger" vClass="passenger"/>
    <trip id="0" depart="0.20" from="top2C4.80.00" to="B3A3" type="passenger"/>
    <trip id="1" depart="0.37" from="A3A4" to="E2E1" type="passenger"/>
    <trip id="2" depart="0.41" from="B1B0.80.00" to="B1B2" type="passenger"/>
    <trip id="3" depart="0.46" from="D2D3" to="D3D2" type="passenger"/>
    <trip id="4" depart="0.89" from="A3A4" to="C4B4.80.00" type="passenger"/>
    <trip id="5" depart="0.89" from="C1D1" to="C4top2" type="passenger"/>
    <trip id="6" depart="1.30" from="B3B4.80.00" to="B2C2" type="passenger"/>
    <trip id="7" depart="1.54" from="A4B4" to="C1D1" type="passenger"/>
    <trip id="8" depart="2.21" from="A4B4" to="C4D4" type="passenger"/>
    <trip id="9" depart="2.27" from="C2D2" to="B3B2" type="passenger"/>
    <trip id="10" depart="2.54" from="E0D0" to="D2E2" type="passenger"/>
    <trip id="11" depart="2.58" from="D0E0.80.00" to="A2A1.80.00" type="passenger"/>
    <trip id="12" depart="2.74" from="D3C3.80.00" to="C0D0.80.00" type="passenger"/>
    <trip id="13" depart="2.84" from="A4A3.80.00" to="B3C3.80.00" type="passenger"/>
    <trip id="14" depart="3.10" from="E0D0" to="D2D3" type="passenger"/>
    <trip id="15" depart="3.70" from="D3E3.80.00" to="B2A2.80.00" type="passenger"/>
    <trip id="16" depart="4.02" from="B1B2.80.00" to="B1B2" type="passenger"/>
    <trip id="17" depart="4.16" from="B1B2.80.00" to="bottom4E0.80.00" type="passenger"/>
    <trip id="18" depart="4.22" from="E0E1" to="bottom1B0.80.00" type="passenger"/>
    <trip id="19" depart="4.30" from="B1C1" to="C4top2" type="passenger"/>
    <trip id="20" depart="4.40" from="E2D2.80.00" to="A3B3" type="passenger"/>
    <trip id="21" depart="4.66" from="right4E4.80.00" to="A2A1" type="passenger"/>
    <trip id="22" depart="5.06" from="left0A0" to="E4E3.80.00" type="passenger"/>
    <trip id="23" depart="5.54" from="right2E2" to="top2C4.80.00" type="passenger"/>
    <trip id="24" depart="6.16" from="A3A2.80.00" to="B1A1" type="passenger"/>
    <trip id="25" depart="6.16" from="C3C2" to="B3B4" type="passenger"/>
    <trip id="26" depart="6.35" from="E3E4" to="E3E4" type="passenger"/>
    <trip id="27" depart="6.37" from="D2D1.80.00" to="D1D0.80.00" type="passenger"/>
    <trip id="28" depart="6.53" from="C0D0" to="A4A3" type="passenger"/>
    <trip id="29" depart="6.70" from="B3B4" to="right4E4.80.00" type="passenger"/>
    <trip id="30" depart="6.91" from="A4A3.80.00" to="B4C4.80.00" type="passenger"/>
    <trip id="31" depart="7.25" from="D4E4" to="A0A1.80.00" type="passenger"/>
    <trip id="32" depart="7.96" from="B2C2" to="E2D2.80.00" type="passenger"/>
    <trip id="33" depart="8.05" from="E1D1.80.00" to="E0bottom4" type="passenger"/>
    <trip id="34" depart="8.22" from="C3C4.80.00" to="left3A3.80.00" type="passenger"/>
    <trip id="35" depart="8.34" from="E4D4" to="C2D2.80.00" type="passenger"/>
    <trip id="36" depart="8.94" from="B2C2.80.00" to="E2right2" type="passenger"/>
    <trip id="37" depart="9.17" from="D1C1" to="E2E1.80.00" type="passenger"/>
    <trip id="38" depart="9.80" from="E1D1" to="C4C3" type="passenger"/>
    <trip id="39" depart="9.84" from="D0C0" to="B3C3" type="passenger"/>
    <trip id="40" depart="10.47" from="B4C4" to="D1C1.80.00" type="passenger"/>
    <trip id="41" depart="11.03" from="B0B1" to="A0left0" type="passenger"/>
    <trip id="42" depart="11.32" from="A0B0.80.00" to="D1E1.80.00" type="passenger"/>
    <trip id="43" depart="11.32" from="C0B0.80.00" to="A1A2" type="passenger"/>
    <trip id="44" depart="11.70" from="E3D3.80.00" to="B4B3.80.00" type="passenger"/>
    <trip id="45" depart="11.85" from="bottom3D0" to="B4top1" type="passenger"/>
    <trip id="46" depart="12.08" from="A2A1.80.00" to="E4D4" type="passenger"/>
    <trip id="47" depart="12.26" from="B2A2" to="C0C1.80.00" type="passenger"/>
    <trip id="48" depart="12.85" from="A0A1" to="left0A0.80.00" type="passenger"/>
    <trip id="49" depart="13.40" from="C1D1" to="B4B3" type="passenger"/>
    <trip id="50" depart="13.52" from="E1E0.80.00" to="A0B0" type="passenger"/>
    <trip id="51" depart="13.93" from="bottom2C0.80.00" to="A2A1" type="passenger"/>
    <trip id="52" depart="14.42" from="E2E3.80.00" to="D2D3" type="passenger"/>
    <trip id="53" depart="14.45" from="A1A0.80.00" to="B4B3.80.00" type="passenger"/>
    <trip id="54" depart="14.57" from="D2D3.80.00" to="C1B1" type="passenger"/>
    <trip id="55" depart="14.86" from="B3B4" to="E3E2.80.00" type="passenger"/>
    <trip id="56" depart="14.97" from="A0A1.80.00" to="D2E2" type="passenger"/>
    <trip id="57" depart="15.01" from="D1D0" to="A1A2" type="passenger"/>
    <trip id="58" depart="15.08" from="E2E1" to="E3D3" type="passenger"/>
    <trip id="59" depart="15.23" from="right0E0.80.00" to="B1B2.80.00" type="passenger"/>
    <trip id="60" depart="15.57" from="right0E0.80.00" to="E0D0" type="passenger"/>
    <trip id="61" depart="16.38" from="B2A2" to="top3D4.80.00" type="passenger"/>
    <trip id="62" depart="16.51" from="B3B4.80.00" to="A2left2" type="passenger"/>
    <trip id="63" depart="16.68" from="E1E0" to="B3A3" type="passenger"/>
    <trip id="64" depart="16.98" from="D2D3.80.00" to="A3A2" type="passenger"/>
    <trip id="65" depart="17.05" from="B3C3.80.00" to="C0bottom2" type="passenger"/>
    <trip id="66" depart="17.16" from="A1A2.80.00" to="D1D0.80.00" type="passenger"/>
    <trip id="67" depart="17.41" from="bottom3D0.80.00" to="D0C0.80.00" type="passenger"/>
    <trip id="68" depart="18.17" from="A2B2" to="D3D2" type="passenger"/>
    <trip id="69" depart="18.64" from="B4C4.80.00" to="A1A0.80.00" type="passenger"/>
    <trip id="70" depart="18.78" from="top2C4.80.00" to="E1D1" type="passenger"/>
    <trip id="71" depart="19.04" from="left1A1.80.00" to="E1E2.80.00" type="passenger"/>
    <trip id="72" depart="19.22" from="E3E2.80.00" to="D0C0.80.00" type="passenger"/>
    <trip id="73" depart="19.30" from="C3C2.80.00" to="D3D4" type="passenger"/>
    <trip id="74" depart="19.52" from="D1C1.80.00" to="B0B1.80.00" type="passenger"/>
    <trip id="75" depart="19.63" from="left1A1.80.00" to="D3D2" type="passenger"/>
    <trip id="76" depart="19.74" from="top0A4.80.00" to="C2C1" type="passenger"/>
    <trip id="77" depart="19.76" from="C4D4.80.00" to="A3A2.80.00" type="passenger"/>
    <trip id="78" depart="19.81" from="D2D3" to="B1A1" type="passenger"/>
    <trip id="79" depart="19.88" from="B1B0.80.00" to="A3A4" type="passenger"/>
    <trip id="80" depart="20.64" from="D4C4.80.00" to="E4D4.80.00" type="passenger"/>
    <trip id="81" depart="20.75" from="C1C2" to="B3B2" type="passenger"/>
    <trip id="82" depart="20.80" from="C2C3" to="B2B1" type="passenger"/>
    <trip id="83" depart="20.90" from="A1A0" to="E4D4" type="passenger"/>
    <trip id="84" depart="21.03" from="C2C1.80.00" to="B0A0.80.00" type="passenger"/>
    <trip id="85" depart="21.30" from="bottom3D0.80.00" to="A1A0" type="passenger"/>
    <trip id="86" depart="21.58" from="B2C2" to="C2B2" type="passenger"/>
    <trip id="87" depart="22.02" from="bottom3D0.80.00" to="C0B0" type="passenger"/>
    <trip id="88" depart="22.23" from="B4C4" to="A1A0" type="passenger"/>
    <trip id="89" depart="22.55" from="right0E0.80.00" to="A3B3" type="passenger"/>
    <trip id="90" depart="23.02" from="C0B0" to="B2B3" type="passenger"/>
    <trip id="91" depart="23.26" from="C1B1" to="left3A3.80.00" type="passenger"/>
    <trip id="92" depart="23.65" from="C0C1" to="A4A3.80.00" type="passenger"/>
    <trip id="93" depart="24.35" from="right0E0" to="E4right4" type="passenger"/>
    <trip id="94" depart="24.69" from="C2C3.80.00" to="B2A2" type="passenger"/>
    <trip id="95" depart="25.20" from="top2C4" to="B2B1.80.00" type="passenger"/>
    <trip id="96" depart="25.70" from="E3D3.80.00" to="A2A1.80.00" type="passenger"/>
    <trip id="97" depart="25.74" from="D2D1" to="E0bottom4" type="passenger"/>
    <trip id="98" depart="26.91" from="C3B3" to="right2E2.80.00" type="passenger"/>
    <trip id="99" depart="27.34" from="D2C2" to="E4D4" type="passenger"/>
    <trip id="100" depart="27.46" from="C3B3.80.00" to="B3A3.80.00" type="passenger"/>
    <trip id="101" depart="28.26" from="E1E0" to="B1B2.80.00" type="passenger"/>
    <trip id="102" depart="28.34" from="B2B1.80.00" to="bottom1B0.80.00" type="passenger"/>
    <trip id="103" depart="28.42" from="C0C1" to="E1E0.80.00" type="passenger"/>
    <trip id="104" depart="28.54" from="B2B1" to="B4top1" type="passenger"/>
    <trip id="105" depart="28.92" from="A3A2" to="E4top4" type="passenger"/>
    <trip id="106" depart="28.95" from="C3C4" to="B1B0" type="passenger"/>
    <trip id="107" depart="28.96" from="B3A3" to="E4right4" type="passenger"/>
    <trip id="108" depart="29.31" from="C1C2" to="E1E2" type="passenger"/>
    <trip id="109" depart="29.37" from="D1D2" to="C2B2.80.00" type="passenger"/>
    <trip id="110" depart="29.94" from="B3A3.80.00" to="C2D2.80.00" type="passenger"/>
    <trip id="111" depart="30.06" from="D3D4.80.00" to="B1A1" type="passenger"/>
    <trip id="112" depart="30.47" from="B1B2" to="E2D2" type="passenger"/>
    <trip id="113" depart="30.51" from="C1D1" to="D1E1.80.00" type="passenger"/>
    <trip id="114" depart="31.06" from="B1C1" to="C2D2.80.00" type="passenger"/>
    <trip id="115" depart="31.38" from="C0B0.80.00" to="B1B2.80.00" type="passenger"/>
    <trip id="116" depart="31.44" from="left3A3.80.00" to="D1C1" type="passenger"/>
    <trip id="117" depart="31.83" from="bottom1B0" to="B2B3" type="passenger"/>
    <trip id="118" depart="32.61" from="B2B3.80.00" to="B4C4" type="passenger"/>
    <trip id="119" depart="33.73" from="A2B2" to="B0B1.80.00" type="passenger"/>
    <trip id="120" depart="34.00" from="D4C4" to="A0bottom0" type="passenger"/>
    <trip id="121" depart="34.10" from="D4E4" to="D2E2.80.00" type="passenger"/>
    <trip id="122" depart="34.18" from="B1B0" to="A2A1.80.00" type="passenger"/>
    <trip id="123" depart="34.42" from="D2E2.80.00" to="B4C4" type="passenger"/>
    <trip id="124" depart="34.48" from="bottom2C0.80.00" to="A4top0" type="passenger"/>
    <trip id="125" depart="34.64" from="E2E3" to="A4top0" type="passenger"/>
    <trip id="126" depart="34.82" from="B1B2.80.00" to="D1D2" type="passenger"/>
    <trip id="127" depart="34.84" from="E4E3" to="D3D4" type="passenger"/>
    <trip id="128" depart="34.90" from="D2D1.80.00" to="left0A0.80.00" type="passenger"/>
    <trip id="129" depart="35.54" from="left3A3.80.00" to="E1E2.80.00" type="passenger"/>
    <trip id="130" depart="35.70" from="D4D3.80.00" to="D0E0" type="passenger"/>
    <trip id="131" depart="36.10" from="B1A1.80.00" to="C0B0.80.00" type="passenger"/>
    <trip id="132" depart="36.12" from="B0B1" to="C2C3" type="passenger"/>
    <trip id="133" depart="36.13" from="C0B0.80.00" to="B4B3.80.00" type="passenger"/>
    <trip id="134" depart="36.21" from="B4C4.80.00" to="E0D0.80.00" type="passenger"/>
    <trip id="135" depart="36.44" from="E0D0" to="A0left0" type="passenger"/>
    <trip id="136" depart="37.14" from="E2D2" to="C3C2.80.00" type="passenger"/>
    <trip id="137" depart="37.19" from="C2D2.80.00" to="B1C1.80.00" type="passenger"/>
    <trip id="138" depart="37.24" from="D4D3.80.00" to="B0B1" type="passenger"/>
    <trip id="139" depart="37.61" from="right2E2.80.00" to="B4A4.80.00" type="passenger"/>
    <trip id="140" depart="37.61" from="C3C4" to="B3B2.80.00" type="passenger"/>
    <trip id="141" depart="37.82" from="E2E3.80.00" to="C3B3" type="passenger"/>
    <trip id="142" depart="38.36" from="C2D2.80.00" to="D4E4" type="passenger"/>
    <trip id="143" depart="38.68" from="A2A1" to="A3left3" type="passenger"/>
    <trip id="144" depart="39.14" from="B0B1" to="D2C2" type="passenger"/>
    <trip id="145" depart="39.39" from="E3D3" to="C4top2" type="passenger"/>
    <trip id="146" depart="40.09" from="B3A3.80.00" to="D3D2" type="passenger"/>
    <trip id="147" depart="40.13" from="bottom3D0.80.00" to="D3D4.80.00" type="passenger"/>
    <trip id="148" depart="40.35" from="D2E2.80.00" to="C0B0.80.00" type="passenger"/>
    <trip id="149" depart="40.66" from="bottom1B0" to="D2C2.80.00" type="passenger"/>
    <trip id="150" depart="40.95" from="A2A1.80.00" to="B0B1.80.00" type="passenger"/>
    <trip id="151" depart="41.04" from="A0A1" to="E0bottom4" type="passenger"/>
    <trip id="152" depart="41.11" from="C1D1.80.00" to="E2D2" type="passenger"/>
    <trip id="153" depart="41.14" from="E4E3" to="D0C0.80.00" type="passenger"/>
    <trip id="154" depart="41.57" from="A4A3.80.00" to="D3E3.80.00" type="passenger"/>
    <trip id="155" depart="42.22" from="B3A3" to="A2B2" type="passenger"/>
    <trip id="156" depart="42.58" from="B3A3" to="D1C1" type="passenger"/>
    <trip id="157" depart="42.86" from="B3A3" to="B4top1" type="passenger"/>
    <trip id="158" depart="43.52" from="B4A4" to="A2A1" type="passenger"/>
    <trip id="159" depart="44.66" from="A2A1" to="E2D2" type="passenger"/>
    <trip id="160" depart="45.18" from="B2C2" to="A1A0" type="passenger"/>
    <trip id="161" depart="45.78" from="top1B4" to="E3D3" type="passenger"/>
    <trip id="162" depart="46.14" from="C2B2" to="A1B1.80.00" type="passenger"/>
    <trip id="163" depart="46.26" from="B2B3" to="B4C4" type="passenger"/>
    <trip id="164" depart="46.36" from="bottom4E0" to="C4C3" type="passenger"/>
    <trip id="165" depart="46.93" from="B1C1" to="A4A3.80.00" type="passenger"/>
    <trip id="166" depart="47.70" from="E4D4" to="C2D2.80.00" type="passenger"/>
    <trip id="167" depart="48.36" from="E2D2.80.00" to="B1C1" type="passenger"/>
    <trip id="168" depart="48.39" from="D2D3" to="D2D3" type="passenger"/>
    <trip id="169" depart="48.86" from="D3E3.80.00" to="D2D1.80.00" type="passenger"/>
    <trip id="170" depart="49.30" from="C1B1.80.00" to="E4right4" type="passenger"/>
    <trip id="171" depart="49.79" from="D1C1.80.00" to="A2B2.80.00" type="passenger"/>
    <trip id="172" depart="50.60" from="B2B3.80.00" to="E0E1" type="passenger"/>
    <trip id="173" depart="50.90" from="top3D4" to="A2left2" type="passenger"/>
    <trip id="174" depart="50.94" from="B4A4.80.00" to="B2B3" type="passenger"/>
    <trip id="175" depart="50.96" from="B2B3.80.00" to="A2A1" type="passenger"/>
    <trip id="176" depart="51.04" from="B1B0.80.00" to="E1right1" type="passenger"/>
    <trip id="177" depart="51.10" from="C1B1.80.00" to="bottom0A0.80.00" type="passenger"/>
    <trip id="178" depart="51.66" from="E2E3.80.00" to="D3D4" type="passenger"/>
    <trip id="179" depart="51.72" from="C0B0" to="D4C4.80.00" type="passenger"/>
    <trip id="180" depart="51.83" from="C2C3" to="bottom4E0.80.00" type="passenger"/>
    <trip id="181" depart="51.98" from="B3B2" to="C4C3.80.00" type="passenger"/>
    <trip id="182" depart="52.06" from="D1D0.80.00" to="A2left2" type="passenger"/>
    <trip id="183" depart="52.78" from="bottom4E0" to="D0bottom3" type="passenger"/>
    <trip id="184" depart="53.31" from="D1E1" to="bottom4E0.80.00" type="passenger"/>
    <trip id="185" depart="53.76" from="B4C4.80.00" to="D3C3" type="passenger"/>
    <trip id="186" depart="53.90" from="C2D2" to="D3E3" type="passenger"/>
    <trip id="187" depart="54.11" from="A0B0" to="C4B4.80.00" type="passenger"/>
    <trip id="188" depart="54.50" from="bottom1B0.80.00" to="B0B1.80.00" type="passenger"/>
    <trip id="189" depart="54.66" from="C3D3.80.00" to="B3C3.80.00" type="passenger"/>
    <trip id="190" depart="55.12" from="D1D0" to="A4top0" type="passenger"/>
    <trip id="191" depart="55.96" from="C3C2" to="E4E3.80.00" type="passenger"/>
    <trip id="192" depart="56.59" from="C4C3" to="E3E2.80.00" type="passenger"/>
    <trip id="193" depart="56.82" from="bottom3D0" to="top0A4.80.00" type="passenger"/>
    <trip id="194" depart="57.10" from="E1E2" to="B1A1" type="passenger"/>
    <trip id="195" depart="57.13" from="B3C3.80.00" to="C1B1" type="passenger"/>
    <trip id="196" depart="57.20" from="E3E2" to="B3B2.80.00" type="passenger"/>
    <trip id="197" depart="58.59" from="C3D3" to="D2D3.80.00" type="passenger"/>
    <trip id="198" depart="58.90" from="bottom1B0.80.00" to="B2B1.80.00" type="passenger"/>
    <trip id="199" depart="59.19" from="C3C4" to="D1D0.80.00" type="passenger"/>
    <trip id="200" depart="59.48" from="B2B3" to="D0bottom3" type="passenger"/>
    <trip id="201" depart="59.67" from="bottom1B0" to="bottom3D0.80.00" type="passenger"/>
    <trip id="202" depart="60.03" from="B3C3.80.00" to="D4E4.80.00" type="passenger"/>
    <trip id="203" depart="60.04" from="A4B4.80.00" to="A1A2" type="passenger"/>
    <trip id="204" depart="60.05" from="D1C1.80.00" to="A1A2" type="passenger"/>
    <trip id="205" depart="60.36" from="C0D0" to="E1E0.80.00" type="passenger"/>
    <trip id="206" depart="60.42" from="top2C4" to="left4A4.80.00" type="passenger"/>
    <trip id="207" depart="60.68" from="top0A4" to="A3left3" type="passenger"/>
    <trip id="208" depart="61.12" from="D4C4.80.00" to="C3C4" type="passenger"/>
    <trip id="209" depart="61.14" from="E1E0.80.00" to="C0D0" type="passenger"/>
    <trip id="210" depart="61.22" from="E0D0.80.00" to="A4top0" type="passenger"/>
    <trip id="211" depart="61.32" from="top4E4" to="E1right1" type="passenger"/>
    <trip id="212" depart="62.03" from="E2E3.80.00" to="bottom3D0.80.00" type="passenger"/>
    <trip id="213" depart="62.05" from="top0A4" to="D1D0.80.00" type="passenger"/>
    <trip id="214" depart="62.20" from="B0A0" to="D2D1.80.00" type="passenger"/>
    <trip id="215" depart="62.48" from="A2A3" to="C2B2" type="passenger"/>
    <trip id="216" depart="62.49" from="A0B0.80.00" to="right2E2.80.00" type="passenger"/>
    <trip id="217" depart="63.33" from="D0E0" to="B4B3" type="passenger"/>
    <trip id="218" depart="63.58" from="B3C3" to="B4C4.80.00" type="passenger"/>
    <trip id="219" depart="63.70" from="C0C1" to="C4B4.80.00" type="passenger"/>
    <trip id="220" depart="64.08" from="A2B2.80.00" to="E2D2.80.00" type="passenger"/>
    <trip id="221" depart="64.16" from="C1D1.80.00" to="C4C3.80.00" type="passenger"/>
    <trip id="222" depart="64.20" from="B4B3.80.00" to="E1E0.80.00" type="passenger"/>
    <trip id="223" depart="64.26" from="E0D0.80.00" to="C1B1" type="passenger"/>
    <trip id="224" depart="64.30" from="B3B4.80.00" to="D1C1.80.00" type="passenger"/>
    <trip id="225" depart="64.31" from="D3C3" to="D0bottom3" type="passenger"/>
    <trip id="226" depart="64.31" from="E3E4.80.00" to="B3B4" type="passenger"/>
    <trip id="227" depart="64.38" from="D4E4" to="E3E2.80.00" type="passenger"/>
    <trip id="228" depart="64.65" from="E1E0.80.00" to="B0C0.80.00" type="passenger"/>
    <trip id="229" depart="65.38" from="D4E4.80.00" to="D3C3" type="passenger"/>
    <trip id="230" depart="65.63" from="C0C1.80.00" to="B1B2.80.00" type="passenger"/>
    <trip id="231" depart="66.62" from="A1A0" to="D0C0" type="passenger"/>
    <trip id="232" depart="67.18" from="E4E3" to="C0D0" type="passenger"/>
    <trip id="233" depart="67.72" from="D3E3.80.00" to="C2B2" type="passenger"/>
    <trip id="234" depart="68.17" from="C1B1" to="A0A1" type="passenger"/>
    <trip id="235" depart="68.64" from="B2A2.80.00" to="B1C1" type="passenger"/>
    <trip id="236" depart="68.73" from="C2B2.80.00" to="right2E2.80.00" type="passenger"/>
    <trip id="237" depart="69.05" from="D2D3.80.00" to="top4E4.80.00" type="passenger"/>
    <trip id="238" depart="69.35" from="E1E0.80.00" to="D1C1" type="passenger"/>
    <trip id="239" depart="69.57" from="A2B2" to="top3D4.80.00" type="passenger"/>
    <trip id="240" depart="69.58" from="E3E2" to="E4E3" type="passenger"/>
    <trip id="241" depart="69.62" from="C3D3" to="C3D3.80.00" type="passenger"/>
    <trip id="242" depart="69.68" from="top0A4.80.00" to="C4top2" type="passenger"/>
    <trip id="243" depart="70.06" from="E2D2" to="C4B4.80.00" type="passenger"/>
    <trip id="244" depart="70.51" from="E4E3.80.00" to="B0A0.80.00" type="passenger"/>
    <trip id="245" depart="70.74" from="C0D0.80.00" to="E3E4" type="passenger"/>
    <trip id="246" depart="70.94" from="B1B0" to="B0A0" type="passenger"/>
    <trip id="247" depart="71.07" from="B3B4" to="D3D4.80.00" type="passenger"/>
    <trip id="248" depart="71.17" from="E2E3" to="C3B3" type="passenger"/>
    <trip id="249" depart="71.49" from="C0B0" to="A0A1" type="passenger"/>
    <trip id="250" depart="71.58" from="C3D3.80.00" to="E0right0" type="passenger"/>
    <trip id="251" depart="71.73" from="C2C1.80.00" to="top4E4.80.00" type="passenger"/>
    <trip id="252" depart="71.78" from="A0B0" to="B2A2" type="passenger"/>
    <trip id="253" depart="73.19" from="D3C3.80.00" to="C2B2" type="passenger"/>
    <trip id="254" depart="73.56" from="B2C2" to="left0A0.80.00" type="passenger"/>
    <trip id="255" depart="73.66" from="A0A1.80.00" to="E2E3" type="passenger"/>
    <trip id="256" depart="73.81" from="B2A2.80.00" to="A4top0" type="passenger"/>
    <trip id="257" depart="73.88" from="D3D2.80.00" to="A3left3" type="passenger"/>
    <trip id="258" depart="74.39" from="bottom1B0" to="D3E3.80.00" type="passenger"/>
    <trip id="259" depart="74.91" from="A0B0" to="A2left2" type="passenger"/>
    <trip id="260" depart="75.25" from="right4E4" to="B2A2.80.00" type="passenger"/>
    <trip id="261" depart="75.36" from="A3A4.80.00" to="D4C4.80.00" type="passenger"/>
    <trip id="262" depart="76.08" from="E0E1.80.00" to="A0left0" type="passenger"/>
    <trip id="263" depart="76.13" from="C2B2.80.00" to="D1C1.80.00" type="passenger"/>
    <trip id="264" depart="76.54" from="top3D4.80.00" to="B0C0" type="passenger"/>
    <trip id="265" depart="76.59" from="bottom2C0.80.00" to="A3A4.80.00" type="passenger"/>
    <trip id="266" depart="76.90" from="A2A1.80.00" to="bottom4E0.80.00" type="passenger"/>
    <trip id="267" depart="77.14" from="D4D3.80.00" to="E0right0" type="passenger"/>
    <trip id="268" depart="77.43" from="C1B1.80.00" to="A2left2" type="passenger"/>
    <trip id="269" depart="78.75" from="E3D3.80.00" to="A1A2.80.00" type="passenger"/>
    <trip id="270" depart="79.12" from="A0A1.80.00" to="E2D2.80.00" type="passenger"/>
    <trip id="271" depart="79.23" from="C0C1" to="E4D4" type="passenger"/>
    <trip id="272" depart="79.30" from="C0C1" to="D1D0" type="passenger"/>
    <trip id="273" depart="79.37" from="D4E4" to="E1D1.80.00" type="passenger"/>
    <trip id="274" depart="79.45" from="right2E2.80.00" to="B4B3" type="passenger"/>
    <trip id="275" depart="79.91" from="B1A1.80.00" to="A2B2" type="passenger"/>
    <trip id="276" depart="80.34" from="D4C4.80.00" to="C2C3" type="passenger"/>
    <trip id="277" depart="80.74" from="C3D3" to="top3D4.80.00" type="passenger"/>
    <trip id="278" depart="80.78" from="B2B3.80.00" to="D1D2" type="passenger"/>
    <trip id="279" depart="80.91" from="top4E4.80.00" to="E0E1" type="passenger"/>
    <trip id="280" depart="81.25" from="A1A0" to="A3A4.80.00" type="passenger"/>
    <trip id="281" depart="81.70" from="C3B3.80.00" to="D2D3.80.00" type="passenger"/>
    <trip id="282" depart="82.10" from="left0A0.80.00" to="B3C3.80.00" type="passenger"/>
    <trip id="283" depart="82.18" from="D3E3" to="B3A3" type="passenger"/>
    <trip id="284" depart="82.36" from="bottom4E0.80.00" to="C1C2.80.00" type="passenger"/>
    <trip id="285" depart="82.55" from="top3D4.80.00" to="C3B3" type="passenger"/>
    <trip id="286" depart="82.79" from="B0A0.80.00" to="B4B3" type="passenger"/>
    <trip id="287" depart="82.86" from="D2D1" to="B3B4.80.00" type="passenger"/>
    <trip id="288" depart="82.95" from="D0C0.80.00" to="A1A0" type="passenger"/>
    <trip id="289" depart="83.35" from="C1C2.80.00" to="B4B3.80.00" type="passenger"/>
    <trip id="290" depart="83.64" from="left0A0" to="C1C2.80.00" type="passenger"/>
    <trip id="291" depart="83.75" from="E4E3.80.00" to="D4E4" type="passenger"/>
    <trip id="292" depart="84.46" from="B1B0.80.00" to="right4E4.80.00" type="passenger"/>
    <trip id="293" depart="84.66" from="A4B4.80.00" to="C3C4.80.00" type="passenger"/>
    <trip id="294" depart="84.74" from="C1D1" to="D2D1.80.00" type="passenger"/>
    <trip id="295" depart="84.76" from="B4A4" to="C4D4.80.00" type="passenger"/>
    <trip id="296" depart="85.20" from="C3C4.80.00" to="E2E3.80.00" type="passenger"/>
    <trip id="297" depart="85.50" from="top3D4" to="D2D1" type="passenger"/>
    <trip id="298" depart="85.58" from="C3B3.80.00" to="D0C0" type="passenger"/>
    <trip id="299" depart="85.86" from="B0A0" to="A1B1" type="passenger"/>
    <trip id="300" depart="86.00" from="E2E3" to="right0E0.80.00" type="passenger"/>
    <trip id="301" depart="86.62" from="D2E2" to="B2B3" type="passenger"/>
    <trip id="302" depart="86.67" from="D2E2.80.00" to="D0bottom3" type="passenger"/>
    <trip id="303" depart="87.42" from="B3B2.80.00" to="left3A3.80.00" type="passenger"/>
    <trip id="304" depart="88.47" from="D4C4.80.00" to="A0A1.80.00" type="passenger"/>
    <trip id="305" depart="88.64" from="D2E2" to="B2B3" type="passenger"/>
    <trip id="306" depart="88.74" from="C4D4" to="A4B4" type="passenger"/>
    <trip id="307" depart="88.94" from="C4D4" to="B3A3.80.00" type="passenger"/>
    <trip id="308" depart="89.22" from="B1B2.80.00" to="E2E3.80.00" type="passenger"/>
    <trip id="309" depart="89.23" from="C3C4" to="D3C3.80.00" type="passenger"/>
    <trip id="310" depart="89.46" from="E0E1.80.00" to="D2E2.80.00" type="passenger"/>
    <trip id="311" depart="89.82" from="E3E2" to="D1D0.80.00" type="passenger"/>
    <trip id="312" depart="90.30" from="E4D4" to="E4E3" type="passenger"/>
    <trip id="313" depart="90.43" from="B2C2" to="E1D1.80.00" type="passenger"/>
    <trip id="314" depart="90.60" from="left2A2.80.00" to="D3C3.80.00" type="passenger"/>
    <trip id="315" depart="91.30" from="C3D3" to="E0D0.80.00" type="passenger"/>
    <trip id="316" depart="91.38" from="C4D4" to="D0bottom3" type="passenger"/>
    <trip id="317" depart="91.67" from="E3E4" to="A1A0" type="passenger"/>
    <trip id="318" depart="91.70" from="right2E2.80.00" to="D2D3" type="passenger"/>
    <trip id="319" depart="92.47" from="E3D3.80.00" to="B3B2.80.00" type="passenger"/>
    <trip id="320" depart="92.56" from="C1D1" to="D2E2" type="passenger"/>
    <trip id="321" depart="92.80" from="C0D0.80.00" to="A4A3" type="passenger"/>
    <trip id="322" depart="93.10" from="B1C1" to="B2B3.80.00" type="passenger"/>
    <trip id="323" depart="93.39" from="right2E2" to="A4B4" type="passenger"/>
    <trip id="324" depart="93.55" from="bottom3D0.80.00" to="bottom1B0.80.00" type="passenger"/>
    <trip id="325" depart="93.68" from="C2C1.80.00" to="D0bottom3" type="passenger"/>
    <trip id="326" depart="93.68" from="A1B1.80.00" to="D3C3.80.00" type="passenger"/>
    <trip id="327" depart="93.74" from="B4C4.80.00" to="A1A0.80.00" type="passenger"/>
    <trip id="328" depart="94.14" from="top3D4" to="E3D3" type="passenger"/>
    <trip id="329" depart="94.38" from="C3D3" to="A3B3.80.00" type="passenger"/>
    <trip id="330" depart="94.54" from="B1B0" to="A4B4" type="passenger"/>
    <trip id="331" depart="94.61" from="C2B2" to="D1E1.80.00" type="passenger"/>
    <trip id="332" depart="94.62" from="left2A2" to="B2B3.80.00" type="passenger"/>
    <trip id="333" depart="94.87" from="E3E2.80.00" to="bottom3D0.80.00" type="passenger"/>
    <trip id="334" depart="95.18" from="left4A4" to="B2C2" type="passenger"/>
    <trip id="335" depart="95.82" from="E3D3.80.00" to="A4B4" type="passenger"/>
    <trip id="336" depart="95.90" from="D0E0.80.00" to="B2B3.80.00" type="passenger"/>
    <trip id="337" depart="96.12" from="C1C0" to="B2A2" type="passenger"/>
    <trip id="338" depart="96.46" from="D3E3" to="D1E1" type="passenger"/>
    <trip id="339" depart="96.62" from="bottom3D0.80.00" to="D2C2.80.00" type="passenger"/>
    <trip id="340" depart="96.98" from="D1D0" to="B0B1" type="passenger"/>
    <trip id="341" depart="97.01" from="B2B3.80.00" to="left3A3.80.00" type="passenger"/>
    <trip id="342" depart="97.10" from="E2E3" to="C0C1" type="passenger"/>
    <trip id="343" depart="97.12" from="A1A0.80.00" to="C0D0" type="passenger"/>
    <trip id="344" depart="98.69" from="E0E1.80.00" to="bottom0A0.80.00" type="passenger"/>
    <trip id="345" depart="98.77" from="C2B2.80.00" to="A2A1" type="passenger"/>
    <trip id="346" depart="98.88" from="left2A2.80.00" to="A2left2" type="passenger"/>
    <trip id="347" depart="99.10" from="D1D2" to="B3B2.80.00" type="passenger"/>
    <trip id="348" depart="100.05" from="A4A3.80.00" to="D3E3.80.00" type="passenger"/>
    <trip id="349" depart="100.55" from="B1B0" to="E2right2" type="passenger"/>
    <trip id="350" depart="100.67" from="E1E2" to="A0B0.80.00" type="passenger"/>
    <trip id="351" depart="100.70" from="B3B4" to="B4A4" type="passenger"/>
    <trip id="352" depart="101.12" from="B2C2.80.00" to="D0D1" type="passenger"/>
    <trip id="353" depart="101.26" from="E4D4.80.00" to="E1D1" type="passenger"/>
    <trip id="354" depart="102.22" from="D2D1.80.00" to="A1A0" type="passenger"/>