<?xml version="1.0" encoding="UTF-8"?>

<!-- generated on 2023-02-12 18:46:55.632771 by randomTrips.py UNKNOWN
<configuration>
    <begin value="0"/>
    <end value="900"/>
    <insertion-rate value="12500.0"/>
    <net-file value="/home/franky3er/Documents/code/HieraGLight/scenarios/grid/5x5-150m/train/60-scenario/network.net.xml"/>
    <random value="True"/>
    <random-depart value="True"/>
    <route-file value="/home/franky3er/Documents/code/HieraGLight/scenarios/grid/5x5-150m/train/60-scenario/routes.rou.xml"/>
    <seed value="60"/>
    <output-trip-file value="/home/franky3er/Documents/code/HieraGLight/scenarios/grid/5x5-150m/train/60-scenario/trips.trips.xml"/>
    <vehicle-class value="passenger"/>
</configuration>
-->

<routes xmlns:xsi="http://www.w3.org/2001/XMLSchema-instance" xsi:noNamespaceSchemaLocation="http://sumo.dlr.de/xsd/routes_file.xsd">
    <vType id="passenger" vClass="passenger"/>
    <trip id="0" depart="0.28" from="C2C1" to="B3B2" type="passenger"/>
    <trip id="1" depart="0.38" from="D1C1.80.00" to="right3E3.80.00" type="passenger"/>
    <trip id="2" depart="0.41" from="B3B2" to="D2C2.80.00" type="passenger"/>
    <trip id="3" depart="0.90" from="D3D4" to="B3B4.80.00" type="passenger"/>
    <trip id="4" depart="0.91" from="left2A2.80.00" to="B1B0.80.00" type="passenger"/>
    <trip id="5" depart="1.28" from="D3D4.80.00" to="D3C3.80.00" type="passenger"/>
    <trip id="6" depart="1.78" from="D0D1" to="bottom3D0.80.00" type="passenger"/>
    <trip id="7" depart="1.79" from="B2C2" to="E0E1" type="passenger"/>
    <trip id="8" depart="1.81" from="B3C3.80.00" to="left0A0.80.00" type="passenger"/>
    <trip id="9" depart="2.18" from="B0A0.80.00" to="A0A1" type="passenger"/>
    <trip id="10" depart="2.23" from="E4E3.80.00" to="D1E1" type="passenger"/>
    <trip id="11" depart="2.28" from="right1E1.80.00" to="D4D3" type="passenger"/>
    <trip id="12" depart="2.36" from="C1C2.80.00" to="left4A4.80.00" type="passenger"/>
    <trip id="13" depart="2.57" from="B0C0" to="C0D0.80.00" type="passenger"/>
    <trip id="14" depart="3.58" from="B2B3.80.00" to="B0A0" type="passenger"/>
    <trip id="15" depart="3.95" from="left4A4" to="E3E4.80.00" type="passenger"/>
    <trip id="16" depart="3.96" from="D3C3.80.00" to="A1B1.80.00" type="passenger"/>
    <trip id="17" depart="4.10" from="C2C1" to="A1A2.80.00" type="passenger"/>
    <trip id="18" depart="4.41" from="bottom0A0" to="left1A1.80.00" type="passenger"/>
    <trip id="19" depart="4.44" from="C0C1.80.00" to="B3C3" type="passenger"/>
    <trip id="20" depart="4.62" from="A3A2" to="B1B2.80.00" type="passenger"/>
    <trip id="21" depart="4.82" from="C1C2" to="D0D1" type="passenger"/>
    <trip id="22" depart="4.88" from="D4C4" to="top0A4.80.00" type="passenger"/>
    <trip id="23" depart="4.98" from="C0B0" to="E0bottom4" type="passenger"/>
    <trip id="24" depart="5.06" from="C3C2.80.00" to="B3C3.80.00" type="passenger"/>
    <trip id="25" depart="5.19" from="C0D0" to="right3E3.80.00" type="passenger"/>
    <trip id="26" depart="5.44" from="right1E1" to="E3D3.80.00" type="passenger"/>
    <trip id="27" depart="5.44" from="B4C4.80.00" to="A0left0" type="passenger"/>
    <trip id="28" depart="5.92" from="B2B1" to="C3B3.80.00" type="passenger"/>
    <trip id="29" depart="6.23" from="D2C2" to="B2B3" type="passenger"/>
    <trip id="30" depart="6.38" from="B1C1.80.00" to="D2E2.80.00" type="passenger"/>
    <trip id="31" depart="6.56" from="D1E1.80.00" to="C0D0.80.00" type="passenger"/>
    <trip id="32" depart="6.91" from="top4E4" to="left2A2.80.00" type="passenger"/>
    <trip id="33" depart="8.02" from="C0B0" to="B1B0.80.00" type="passenger"/>
    <trip id="34" depart="8.11" from="C0B0" to="D3E3" type="passenger"/>
    <trip id="35" depart="8.90" from="B3A3" to="A1A2.80.00" type="passenger"/>
    <trip id="36" depart="9.24" from="C2B2.80.00" to="C1B1" type="passenger"/>
    <trip id="37" depart="9.56" from="B2C2" to="E0bottom4" type="passenger"/>
    <trip id="38" depart="9.87" from="left2A2" to="C0bottom2" type="passenger"/>
    <trip id="39" depart="10.06" from="D4E4" to="C2C1.80.00" type="passenger"/>
    <trip id="40" depart="10.06" from="A0A1.80.00" to="E0D0.80.00" type="passenger"/>
    <trip id="41" depart="10.18" from="D2D1.80.00" to="C3B3" type="passenger"/>
    <trip id="42" depart="10.23" from="C4B4" to="top0A4.80.00" type="passenger"/>
    <trip id="43" depart="10.34" from="top1B4" to="D1D0" type="passenger"/>
    <trip id="44" depart="10.69" from="B1B2.80.00" to="E0right0" type="passenger"/>
    <trip id="45" depart="10.94" from="left0A0" to="B1A1.80.00" type="passenger"/>
    <trip id="46" depart="10.98" from="top3D4.80.00" to="left0A0.80.00" type="passenger"/>
    <trip id="47" depart="11.17" from="D1E1" to="bottom0A0.80.00" type="passenger"/>
    <trip id="48" depart="11.22" from="A4A3" to="D1E1" type="passenger"/>
    <trip id="49" depart="11.27" from="D4E4" to="E2D2" type="passenger"/>
    <trip id="50" depart="11.61" from="D4E4.80.00" to="B4C4" type="passenger"/>
    <trip id="51" depart="12.82" from="B2B1.80.00" to="right4E4.80.00" type="passenger"/>
    <trip id="52" depart="12.88" from="D0E0" to="A2left2" type="passenger"/>
    <trip id="53" depart="12.98" from="D4E4" to="bottom3D0.80.00" type="passenger"/>
    <trip id="54" depart="13.78" from="bottom4E0" to="C0C1.80.00" type="passenger"/>
    <trip id="55" depart="13.86" from="B2A2.80.00" to="right3E3.80.00" type="passenger"/>
    <trip id="56" depart="14.35" from="C0D0" to="A1A2.80.00" type="passenger"/>
    <trip id="57" depart="14.42" from="B2B1.80.00" to="B3C3.80.00" type="passenger"/>
    <trip id="58" depart="14.67" from="bottom2C0.80.00" to="C3D3" type="passenger"/>
    <trip id="59" depart="15.10" from="bottom1B0" to="A0left0" type="passenger"/>
    <trip id="60" depart="15.22" from="C3C4" to="E1E2" type="passenger"/>
    <trip id="61" depart="15.49" from="A3A4" to="E2D2.80.00" type="passenger"/>
    <trip id="62" depart="15.80" from="C1D1.80.00" to="B4top1" type="passenger"/>
    <trip id="63" depart="15.89" from="E2E3.80.00" to="E0E1.80.00" type="passenger"/>
    <trip id="64" depart="16.15" from="B3B4.80.00" to="D1D2.80.00" type="passenger"/>
    <trip id="65" depart="16.62" from="C1C0.80.00" to="D0C0.80.00" type="passenger"/>
    <trip id="66" depart="17.54" from="E2D2" to="D2E2" type="passenger"/>
    <trip id="67" depart="17.56" from="A2A1.80.00" to="left1A1.80.00" type="passenger"/>
    <trip id="68" depart="17.92" from="C0C1.80.00" to="D3C3.80.00" type="passenger"/>
    <trip id="69" depart="18.24" from="A0B0" to="D4E4.80.00" type="passenger"/>
    <trip id="70" depart="18.66" from="E2E1" to="B4top1" type="passenger"/>
    <trip id="71" depart="18.68" from="right3E3.80.00" to="E0D0.80.00" type="passenger"/>
    <trip id="72" depart="18.86" from="top4E4.80.00" to="E2E1.80.00" type="passenger"/>
    <trip id="73" depart="19.02" from="A3A4.80.00" to="B0C0" type="passenger"/>
    <trip id="74" depart="19.26" from="E1E2" to="D2E2.80.00" type="passenger"/>
    <trip id="75" depart="19.34" from="C3D3.80.00" to="A4B4.80.00" type="passenger"/>
    <trip id="76" depart="19.42" from="A2A3.80.00" to="A2A1" type="passenger"/>
    <trip id="77" depart="19.53" from="A3A4" to="D2E2.80.00" type="passenger"/>
    <trip id="78" depart="19.70" from="top1B4.80.00" to="bottom0A0.80.00" type="passenger"/>
    <trip id="79" depart="19.86" from="A4B4.80.00" to="E2E3" type="passenger"/>
    <trip id="80" depart="19.90" from="E3D3" to="E3E4" type="passenger"/>
    <trip id="81" depart="19.95" from="B2B1.80.00" to="top4E4.80.00" type="passenger"/>
    <trip id="82" depart="20.22" from="C4B4.80.00" to="E4top4" type="passenger"/>
    <trip id="83" depart="20.70" from="B1B0.80.00" to="D3C3.80.00" type="passenger"/>
    <trip id="84" depart="20.73" from="bottom3D0.80.00" to="right1E1.80.00" type="passenger"/>
    <trip id="85" depart="20.84" from="E3E2.80.00" to="left0A0.80.00" type="passenger"/>
    <trip id="86" depart="21.14" from="B3B4" to="C4C3.80.00" type="passenger"/>
    <trip id="87" depart="22.69" from="B3C3" to="C2B2.80.00" type="passenger"/>
    <trip id="88" depart="22.79" from="right3E3" to="B2C2.80.00" type="passenger"/>
    <trip id="89" depart="22.82" from="C3B3.80.00" to="C2C3.80.00" type="passenger"/>
    <trip id="90" depart="22.83" from="bottom3D0.80.00" to="E2E3.80.00" type="passenger"/>
    <trip id="91" depart="23.03" from="E1E0.80.00" to="E4D4.80.00" type="passenger"/>
    <trip id="92" depart="23.40" from="B3B2.80.00" to="B4top1" type="passenger"/>
    <trip id="93" depart="23.70" from="bottom1B0.80.00" to="C2D2.80.00" type="passenger"/>
    <trip id="94" depart="23.81" from="B2B1.80.00" to="E4D4" type="passenger"/>
    <trip id="95" depart="24.04" from="C2D2" to="B4A4" type="passenger"/>
    <trip id="96" depart="24.23" from="top4E4.80.00" to="D1D0" type="passenger"/>
    <trip id="97" depart="24.29" from="A1B1" to="E0E1" type="passenger"/>
    <trip id="98" depart="24.67" from="C2D2" to="D0E0.80.00" type="passenger"/>
    <trip id="99" depart="25.18" from="E2E3.80.00" to="B3B4.80.00" type="passenger"/>
    <trip id="100" depart="25.26" from="C0C1.80.00" to="D4E4" type="passenger"/>
    <trip id="101" depart="25.42" from="top3D4" to="A2A1.80.00" type="passenger"/>
    <trip id="102" depart="25.53" from="B1C1" to="A4A3" type="passenger"/>
    <trip id="103" depart="26.26" from="B0C0.80.00" to="E2E1.80.00" type="passenger"/>
    <trip id="104" depart="26.30" from="E0D0.80.00" to="top3D4.80.00" type="passenger"/>
    <trip id="105" depart="26.90" from="D4C4.80.00" to="C2B2" type="passenger"/>
    <trip id="106" depart="27.38" from="B1A1" to="D2D3" type="passenger"/>
    <trip id="107" depart="28.32" from="B3C3" to="D2D1.80.00" type="passenger"/>
    <trip id="108" depart="28.36" from="D4E4.80.00" to="B4B3.80.00" type="passenger"/>
    <trip id="109" depart="28.47" from="D1C1.80.00" to="C0B0" type="passenger"/>
    <trip id="110" depart="28.66" from="D1D0.80.00" to="B1B0.80.00" type="passenger"/>
    <trip id="111" depart="28.79" from="E3E4" to="top3D4.80.00" type="passenger"/>
    <trip id="112" depart="29.01" from="D1E1" to="E3E4.80.00" type="passenger"/>
    <trip id="113" depart="29.07" from="right1E1" to="D2E2" type="passenger"/>
    <trip id="114" depart="29.46" from="E0D0.80.00" to="C0D0" type="passenger"/>
    <trip id="115" depart="30.20" from="C4D4.80.00" to="D2D1" type="passenger"/>
    <trip id="116" depart="30.26" from="right1E1" to="right1E1.80.00" type="passenger"/>
    <trip id="117" depart="30.26" from="A2A1" to="B2B3" type="passenger"/>
    <trip id="118" depart="30.27" from="E2E1.80.00" to="D4top3" type="passenger"/>
    <trip id="119" depart="30.34" from="bottom4E0" to="left1A1.80.00" type="passenger"/>
    <trip id="120" depart="30.66" from="right0E0" to="E1D1" type="passenger"/>
    <trip id="121" depart="31.53" from="bottom0A0" to="C4B4.80.00" type="passenger"/>
    <trip id="122" depart="31.75" from="A2A3.80.00" to="E1right1" type="passenger"/>
    <trip id="123" depart="31.85" from="E1D1" to="C2B2.80.00" type="passenger"/>
    <trip id="124" depart="31.88" from="D3D2" to="top0A4.80.00" type="passenger"/>
    <trip id="125" depart="32.59" from="left1A1.80.00" to="B2B3" type="passenger"/>
    <trip id="126" depart="33.38" from="C1D1.80.00" to="E4D4" type="passenger"/>
    <trip id="127" depart="33.83" from="B4C4.80.00" to="A3A2" type="passenger"/>
    <trip id="128" depart="34.10" from="A0A1.80.00" to="B0B1.80.00" type="passenger"/>
    <trip id="129" depart="34.13" from="C2C1" to="C3C4" type="passenger"/>
    <trip id="130" depart="34.38" from="C1C2.80.00" to="D4C4" type="passenger"/>
    <trip id="131" depart="34.90" from="B2A2" to="C3C2" type="passenger"/>
    <trip id="132" depart="34.92" from="E3E4.80.00" to="D0E0.80.00" type="passenger"/>
    <trip id="133" depart="35.72" from="D1D0.80.00" to="A0B0.80.00" type="passenger"/>
    <trip id="134" depart="35.95" from="E2E1" to="A3left3" type="passenger"/>
    <trip id="135" depart="36.89" from="B2C2.80.00" to="E4D4" type="passenger"/>
    <trip id="136" depart="37.10" from="C4C3" to="A3B3.80.00" type="passenger"/>
    <trip id="137" depart="37.14" from="left4A4" to="B0B1.80.00" type="passenger"/>
    <trip id="138" depart="37.46" from="D1C1.80.00" to="right2E2.80.00" type="passenger"/>
    <trip id="139" depart="38.43" from="B2A2.80.00" to="left0A0.80.00" type="passenger"/>
    <trip id="140" depart="38.89" from="left4A4" to="D3D4.80.00" type="passenger"/>
    <trip id="141" depart="39.47" from="A3A4.80.00" to="top1B4.80.00" type="passenger"/>
    <trip id="142" depart="39.77" from="B1C1.80.00" to="C1C0" type="passenger"/>
    <trip id="143" depart="40.16" from="B2B3.80.00" to="E3D3" type="passenger"/>
    <trip id="144" depart="40.35" from="E3D3.80.00" to="B2C2" type="passenger"/>
    <trip id="145" depart="40.44" from="C0B0" to="B0B1" type="passenger"/>
    <trip id="146" depart="40.56" from="B3B4.80.00" to="B2B1" type="passenger"/>
    <trip id="147" depart="41.42" from="D0C0" to="A4B4.80.00" type="passenger"/>
    <trip id="148" depart="41.46" from="C3C4" to="B3C3.80.00" type="passenger"/>
    <trip id="149" depart="41.97" from="D1D0.80.00" to="D0C0" type="passenger"/>
    <trip id="150" depart="42.56" from="right2E2" to="right3E3.80.00" type="passenger"/>
    <trip id="151" depart="43.10" from="E2D2.80.00" to="D2C2" type="passenger"/>
    <trip id="152" depart="43.98" from="B2B1" to="E0right0" type="passenger"/>
    <trip id="153" depart="44.36" from="C2C1.80.00" to="B3C3.80.00" type="passenger"/>
    <trip id="154" depart="45.16" from="B2B3.80.00" to="left1A1.80.00" type="passenger"/>
    <trip id="155" depart="45.25" from="bottom4E0.80.00" to="B3A3" type="passenger"/>
    <trip id="156" depart="46.40" from="B1B2" to="D4C4.80.00" type="passenger"/>
    <trip id="157" depart="46.65" from="D1E1.80.00" to="A3A4" type="passenger"/>
    <trip id="158" depart="46.80" from="left3A3.80.00" to="C0D0.80.00" type="passenger"/>
    <trip id="159" depart="46.89" from="E3E4.80.00" to="B2A2.80.00" type="passenger"/>
    <trip id="160" depart="46.96" from="C1D1" to="C2D2.80.00" type="passenger"/>
    <trip id="161" depart="47.05" from="D2D3.80.00" to="B2A2.80.00" type="passenger"/>
    <trip id="162" depart="47.14" from="A2A3.80.00" to="D1C1.80.00" type="passenger"/>
    <trip id="163" depart="48.02" from="C1D1.80.00" to="bottom1B0.80.00" type="passenger"/>
    <trip id="164" depart="48.26" from="B4A4" to="top3D4.80.00" type="passenger"/>
    <trip id="165" depart="49.06" from="D3E3.80.00" to="C4D4" type="passenger"/>
    <trip id="166" depart="49.86" from="E3E2.80.00" to="E3E2.80.00" type="passenger"/>
    <trip id="167" depart="50.16" from="B2C2" to="right4E4.80.00" type="passenger"/>
    <trip id="168" depart="50.22" from="C3C2" to="B0bottom1" type="passenger"/>
    <trip id="169" depart="50.53" from="B1B2" to="A3A4.80.00" type="passenger"/>
    <trip id="170" depart="50.60" from="A1A2.80.00" to="top1B4.80.00" type="passenger"/>
    <trip id="171" depart="50.78" from="B3B4.80.00" to="C2D2" type="passenger"/>
    <trip id="172" depart="51.02" from="B2B3" to="D0C0" type="passenger"/>
    <trip id="173" depart="51.11" from="D1E1" to="D2E2" type="passenger"/>
    <trip id="174" depart="51.42" from="left0A0.80.00" to="B4A4.80.00" type="passenger"/>
    <trip id="175" depart="51.43" from="C1C2.80.00" to="C0B0.80.00" type="passenger"/>
    <trip id="176" depart="51.54" from="bottom2C0.80.00" to="C3D3" type="passenger"/>
    <trip id="177" depart="51.62" from="B3B4.80.00" to="C3C2.80.00" type="passenger"/>
    <trip id="178" depart="52.09" from="bottom3D0.80.00" to="B1B2.80.00" type="passenger"/>
    <trip id="179" depart="52.42" from="B1B2.80.00" to="bottom2C0.80.00" type="passenger"/>
    <trip id="180" depart="52.59" from="E3E4" to="A1A0.80.00" type="passenger"/>
    <trip id="181" depart="52.61" from="bottom4E0.80.00" to="D4D3" type="passenger"/>
    <trip id="182" depart="52.65" from="C1C2" to="E0E1" type="passenger"/>
    <trip id="183" depart="52.95" from="D0D1" to="B3A3.80.00" type="passenger"/>
    <trip id="184" depart="53.50" from="A4A3" to="B1B0" type="passenger"/>
    <trip id="185" depart="54.64" from="C1C0" to="B1C1" type="passenger"/>
    <trip id="186" depart="54.76" from="C0C1" to="D1C1" type="passenger"/>
    <trip id="187" depart="54.80" from="bottom3D0.80.00" to="E1right1" type="passenger"/>
    <trip id="188" depart="54.88" from="B2B3" to="D2D3.80.00" type="passenger"/>
    <trip id="189" depart="55.16" from="B3B2.80.00" to="C3C2.80.00" type="passenger"/>
    <trip id="190" depart="55.31" from="A4B4" to="E4D4.80.00" type="passenger"/>
    <trip id="191" depart="55.37" from="D0D1.80.00" to="B0C0.80.00" type="passenger"/>
    <trip id="192" depart="55.44" from="E2E3.80.00" to="B0C0.80.00" type="passenger"/>
    <trip id="193" depart="55.78" from="D3C3.80.00" to="C1D1" type="passenger"/>
    <trip id="194" depart="56.02" from="D0E0" to="E3E4.80.00" type="passenger"/>
    <trip id="195" depart="56.19" from="B4C4.80.00" to="A3A4" type="passenger"/>
    <trip id="196" depart="56.30" from="bottom1B0" to="B2B1.80.00" type="passenger"/>
    <trip id="197" depart="56.59" from="E1D1" to="B3A3.80.00" type="passenger"/>
    <trip id="198" depart="56.60" from="D0D1" to="C2C3" type="passenger"/>
    <trip id="199" depart="56.82" from="bottom1B0" to="D0C0.80.00" type="passenger"/>
    <trip id="200" depart="57.63" from="top1B4.80.00" to="A2B2.80.00" type="passenger"/>
    <trip id="201" depart="57.89" from="C3C4" to="E1right1" type="passenger"/>
    <trip id="202" depart="58.06" from="C2D2.80.00" to="A4A3" type="passenger"/>
    <trip id="203" depart="58.18" from="C3B3.80.00" to="E2E1.80.00" type="passenger"/>
    <trip id="204" depart="58.50" from="A2A1.80.00" to="bottom0A0.80.00" type="passenger"/>
    <trip id="205" depart="58.98" from="D0E0.80.00" to="A3A4.80.00" type="passenger"/>
    <trip id="206" depart="59.30" from="D3C3.80.00" to="C4B4.80.00" type="passenger"/>
    <trip id="207" depart="59.38" from="B3C3" to="B1C1" type="passenger"/>
    <trip id="208" depart="59.48" from="D1E1.80.00" to="B0B1.80.00" type="passenger"/>
    <trip id="209" depart="59.66" from="top3D4" to="C4D4.80.00" type="passenger"/>
    <trip id="210" depart="59.98" from="D1D0.80.00" to="B3C3.80.00" type="passenger"/>
    <trip id="211" depart="60.97" from="D0E0.80.00" to="B2C2.80.00" type="passenger"/>
    <trip id="212" depart="61.15" from="right3E3" to="D1E1" type="passenger"/>
    <trip id="213" depart="61.23" from="A2A1.80.00" to="C3C4" type="passenger"/>
    <trip id="214" depart="61.31" from="left1A1" to="D3D2" type="passenger"/>
    <trip id="215" depart="61.43" from="C1C2.80.00" to="D1D2" type="passenger"/>
    <trip id="216" depart="61.79" from="right1E1.80.00" to="D2D1" type="passenger"/>
    <trip id="217" depart="61.91" from="D1C1.80.00" to="D0C0" type="passenger"/>
    <trip id="218" depart="62.08" from="B0A0.80.00" to="E1D1" type="passenger"/>
    <trip id="219" depart="62.34" from="D1E1" to="E2D2.80.00" type="passenger"/>
    <trip id="220" depart="62.50" from="D0D1" to="C0B0" type="passenger"/>
    <trip id="221" depart="62.53" from="B2B3" to="A3A4" type="passenger"/>
    <trip id="222" depart="62.66" from="right3E3.80.00" to="D1E1" type="passenger"/>
    <trip id="223" depart="63.53" from="B1B2" to="A4top0" type="passenger"/>
    <trip id="224" depart="63.61" from="C1C0" to="A0A1.80.00" type="passenger"/>
    <trip id="225" depart="63.82" from="A2A3" to="C1C0" type="passenger"/>
    <trip id="226" depart="64.55" from="A1A2.80.00" to="B0A0.80.00" type="passenger"/>
    <trip id="227" depart="65.18" from="A4A3" to="D0C0.80.00" type="passenger"/>
    <trip id="228" depart="65.46" from="top2C4" to="D0E0.80.00" type="passenger"/>
    <trip id="229" depart="65.86" from="right3E3.80.00" to="C1C0.80.00" type="passenger"/>
    <trip id="230" depart="65.88" from="B1B0" to="right3E3.80.00" type="passenger"/>
    <trip id="231" depart="66.37" from="B3B2.80.00" to="A3B3.80.00" type="passenger"/>
    <trip id="232" depart="66.66" from="B2B1.80.00" to="A0A1" type="passenger"/>
    <trip id="233" depart="67.06" from="E2D2" to="B1A1" type="passenger"/>
    <trip id="234" depart="67.29" from="bottom1B0.80.00" to="D4top3" type="passenger"/>
    <trip id="235" depart="67.38" from="top3D4" to="E1E2" type="passenger"/>
    <trip id="236" depart="67.53" from="D2E2" to="A3B3.80.00" type="passenger"/>
    <trip id="237" depart="68.18" from="A1A2" to="B3C3" type="passenger"/>
    <trip id="238" depart="68.38" from="C2B2" to="left4A4.80.00" type="passenger"/>
    <trip id="239" depart="68.40" from="C3C2.80.00" to="A1A2" type="passenger"/>
    <trip id="240" depart="68.50" from="B4A4" to="B2B3.80.00" type="passenger"/>
    <trip id="241" depart="69.16" from="E3D3" to="A3A4" type="passenger"/>
    <trip id="242" depart="69.22" from="A1B1" to="C1C2.80.00" type="passenger"/>
    <trip id="243" depart="69.32" from="E4D4.80.00" to="A3B3.80.00" type="passenger"/>
    <trip id="244" depart="69.47" from="right0E0" to="C2D2" type="passenger"/>
    <trip id="245" depart="69.76" from="D2C2.80.00" to="C2B2" type="passenger"/>
    <trip id="246" depart="70.06" from="A1A2.80.00" to="D3D2.80.00" type="passenger"/>
    <trip id="247" depart="70.16" from="B1B2.80.00" to="D4E4.80.00" type="passenger"/>
    <trip id="248" depart="70.34" from="E2E3.80.00" to="A0B0.80.00" type="passenger"/>
    <trip id="249" depart="70.63" from="D2E2.80.00" to="D4E4.80.00" type="passenger"/>
    <trip id="250" depart="71.02" from="top4E4" to="B3A3.80.00" type="passenger"/>
    <trip id="251" depart="71.10" from="left2A2" to="E3E4.80.00" type="passenger"/>
    <trip id="252" depart="71.34" from="D3C3" to="B3B4" type="passenger"/>
    <trip id="253" depart="71.80" from="A3A4" to="D0C0.80.00" type="passenger"/>
    <trip id="254" depart="72.34" from="left0A0.80.00" to="D0D1" type="passenger"/>
    <trip id="255" depart="72.48" from="D0E0.80.00" to="D2D3.80.00" type="passenger"/>
    <trip id="256" depart="72.54" from="A0A1.80.00" to="bottom3D0.80.00" type="passenger"/>
    <trip id="257" depart="72.89" from="C2C3.80.00" to="B4top1" type="passenger"/>
    <trip id="258" depart="73.49" from="B3A3" to="B4A4.80.00" type="passenger"/>
    <trip id="259" depart="74.05" from="D3E3" to="A1A2.80.00" type="passenger"/>
    <trip id="260" depart="74.09" from="D4E4.80.00" to="E2E1.80.00" type="passenger"/>
    <trip id="261" depart="74.31" from="C4C3.80.00" to="E2D2.80.00" type="passenger"/>
    <trip id="262" depart="74.43" from="A2A1.80.00" to="A0A1" type="passenger"/>
    <trip id="263" depart="74.75" from="C2C1" to="D2D1.80.00" type="passenger"/>
    <trip id="264" depart="75.06" from="C1D1.80.00" to="B4B3.80.00" type="passenger"/>
    <trip id="265" depart="75.06" from="B4B3.80.00" to="B4B3" type="passenger"/>
    <trip id="266" depart="75.70" from="A0A1.80.00" to="D2C2" type="passenger"/>
    <trip id="267" depart="75.91" from="E0E1" to="A1A2" type="passenger"/>
    <trip id="268" depart="77.14" from="A3A4.80.00" to="A3left3" type="passenger"/>
    <trip id="269" depart="77.25" from="C1D1" to="E0D0" type="passenger"/>
    <trip id="270" depart="77.42" from="C0B0.80.00" to="A4B4.80.00" type="passenger"/>
    <trip id="271" depart="77.89" from="left4A4.80.00" to="E4E3.80.00" type="passenger"/>
    <trip id="272" depart="78.06" from="D2D1" to="C3B3" type="passenger"/>
    <trip id="273" depart="78.10" from="top0A4.80.00" to="C2C3" type="passenger"/>
    <trip id="274" depart="78.17" from="B2B3" to="D2D1" type="passenger"/>
    <trip id="275" depart="78.27" from="A3A2.80.00" to="C3C4.80.00" type="passenger"/>
    <trip id="276" depart="78.50" from="left1A1.80.00" to="bottom4E0.80.00" type="passenger"/>
    <trip id="277" depart="79.11" from="D1E1.80.00" to="D1D2.80.00" type="passenger"/>
    <trip id="278" depart="79.38" from="top4E4" to="bottom4E0.80.00" type="passenger"/>
    <trip id="279" depart="79.70" from="C0B0.80.00" to="E3D3.80.00" type="passenger"/>
    <trip id="280" depart="79.75" from="C2B2.80.00" to="B1B0.80.00" type="passenger"/>
    <trip id="281" depart="79.95" from="C2C3.80.00" to="D0E0" type="passenger"/>
    <trip id="282" depart="79.96" from="D1C1.80.00" to="E2E3" type="passenger"/>
    <trip id="283" depart="80.36" from="B1A1.80.00" to="left4A4.80.00" type="passenger"/>
    <trip id="284" depart="80.75" from="B0C0.80.00" to="D3D4.80.00" type="passenger"/>
    <trip id="285" depart="80.75" from="C2C1" to="D3D4" type="passenger"/>
    <trip id="286" depart="80.79" from="E0E1" to="C1B1" type="passenger"/>
    <trip id="287" depart="81.07" from="top2C4" to="C2D2" type="passenger"/>
    <trip id="288" depart="81.62" from="D1E1" to="E2E3.80.00" type="passenger"/>
    <trip id="289" depart="81.71" from="left2A2" to="C1C2.80.00" type="passenger"/>
    <trip id="290" depart="82.04" from="E2D2" to="B3B4" type="passenger"/>
    <trip id="291" depart="82.06" from="E3E4" to="C1D1.80.00" type="passenger"/>
    <trip id="292" depart="82.25" from="C4B4" to="E0D0" type="passenger"/>
    <trip id="293" depart="82.25" from="B0A0.80.00" to="E2right2" type="passenger"/>
    <trip id="294" depart="82.68" from="left2A2" to="bottom3D0.80.00" type="passenger"/>
    <trip id="295" depart="82.71" from="A4B4" to="C0bottom2" type="passenger"/>
    <trip id="296" depart="83.14" from="D2D3.80.00" to="A1A2.80.00" type="passenger"/>
    <trip id="297" depart="83.66" from="C2C1" to="A4B4" type="passenger"/>
    <trip id="298" depart="84.41" from="D2E2.80.00" to="top0A4.80.00" type="passenger"/>
    <trip id="299" depart="84.76" from="D2D3" to="B1A1" type="passenger"/>
    <trip id="300" depart="85.68" from="B1B2.80.00" to="top2C4.80.00" type="passenger"/>
    <trip id="301" depart="86.04" from="A1A0.80.00" to="B4B3.80.00" type="passenger"/>
    <trip id="302" depart="86.20" from="D4C4.80.00" to="C2C1" type="passenger"/>
    <trip id="303" depart="86.60" from="C2B2" to="E0right0" type="passenger"/>
    <trip id="304" depart="86.63" from="E1E2" to="B1A1" type="passenger"/>
    <trip id="305" depart="86.94" from="D1D2" to="D0C0.80.00" type="passenger"/>
    <trip id="306" depart="87.45" from="D2C2" to="E0E1" type="passenger"/>
    <trip id="307" depart="87.47" from="B2C2" to="B2B3" type="passenger"/>
    <trip id="308" depart="87.65" from="left2A2.80.00" to="E1E2.80.00" type="passenger"/>
    <trip id="309" depart="87.86" from="D1C1" to="A1A0.80.00" type="passenger"/>
    <trip id="310" depart="87.88" from="C3C2" to="A3A2" type="passenger"/>
    <trip id="311" depart="88.14" from="B0A0.80.00" to="bottom1B0.80.00" type="passenger"/>
    <trip id="312" depart="89.42" from="E1D1" to="E3D3.80.00" type="passenger"/>
    <trip id="313" depart="89.50" from="bottom2C0.80.00" to="A0A1.80.00" type="passenger"/>
    <trip id="314" depart="89.54" from="D2E2.80.00" to="D3E3.80.00" type="passenger"/>
    <trip id="315" depart="89.77" from="D1E1" to="D2E2" type="passenger"/>
    <trip id="316" depart="89.78" from="right3E3.80.00" to="A0A1.80.00" type="passenger"/>
    <trip id="317" depart="90.49" from="right3E3.80.00" to="A0B0.80.00" type="passenger"/>
    <trip id="318" depart="90.52" from="E1E2" to="A1A2.80.00" type="passenger"/>
    <trip id="319" depart="90.59" from="C1C2" to="D1C1.80.00" type="passenger"/>
    <trip id="320" depart="90.99" from="E1E0.80.00" to="C1C0" type="passenger"/>
    <trip id="321" depart="91.01" from="D4D3" to="right2E2.80.00" type="passenger"/>
    <trip id="322" depart="91.20" from="C1C0.80.00" to="E1right1" type="passenger"/>
    <trip id="323" depart="91.34" from="D3D4.80.00" to="D0C0" type="passenger"/>
    <trip id="324" depart="91.58" from="C2D2.80.00" to="A2A3.80.00" type="passenger"/>
    <trip id="325" depart="91.86" from="D3D2.80.00" to="B0A0" type="passenger"/>
    <trip id="326" depart="91.93" from="B1B0" to="E0right0" type="passenger"/>
    <trip id="327" depart="92.12" from="C1D1.80.00" to="C0D0.80.00" type="passenger"/>
    <trip id="328" depart="92.20" from="top4E4" to="D0D1" type="passenger"/>
    <trip id="329" depart="92.34" from="E0D0.80.00" to="C1C2" type="passenger"/>
    <trip id="330" depart="92.54" from="left0A0" to="D2D3" type="passenger"/>
    <trip id="331" depart="92.70" from="E3E2" to="A4left4" type="passenger"/>
    <trip id="332" depart="92.87" from="C2C3" to="A4left4" type="passenger"/>
    <trip id="333" depart="92.89" from="A1A0.80.00" to="E3D3.80.00" type="passenger"/>
    <trip id="334" depart="93.46" from="right1E1" to="A3A4.80.00" type="passenger"/>
    <trip id="335" depart="94.14" from="E2D2" to="A2left2" type="passenger"/>
    <trip id="336" depart="94.55" from="bottom0A0.80.00" to="C2B2.80.00" type="passenger"/>
    <trip id="337" depart="94.63" from="E2D2.80.00" to="left1A1.80.00" type="passenger"/>
    <trip id="338" depart="94.71" from="right1E1.80.00" to="B1C1.80.00" type="passenger"/>
    <trip id="339" depart="94.91" from="top1B4.80.00" to="D1D0" type="passenger"/>
    <trip id="340" depart="95.01" from="left3A3.80.00" to="D0C0" type="passenger"/>
    <trip id="341" depart="95.03" from="D3D2.80.00" to="left4A4.80.00" type="passenger"/>
    <trip id="342" depart="95.19" from="C1C0.80.00" to="D1D2.80.00" type="passenger"/>
    <trip id="343" depart="95.66" from="C1C2.80.00" to="E4right4" type="passenger"/>
    <trip id="344" depart="96.10" from="right3E3" to="C3B3" type="passenger"/>
    <trip id="345" depart="96.51" from="B1A1" to="C2C3" type="passenger"/>
    <trip id="346" depart="96.66" from="top2C4" to="C1C0" type="passenger"/>
    <trip id="347" depart="96.85" from="left4A4.80.00" to="E2E3" type="passenger"/>
    <trip id="348" depart="97.50" from="D1D0" to="C2D2.80.00" type="passenger"/>
    <trip id="349" depart="97.59" from="C3D3.80.00" to="B2C2" type="passenger"/>
    <trip id="350" depart="97.66" from="E4E3" to="E4D4" type="passenger"/>
    <trip id="351" depart="98.23" from="A4A3" to="C2C1" type="passenger"/>