<?xml version="1.0" encoding="UTF-8"?>

<!-- generated on 2023-04-26 16:57:05.530703 by randomTrips.py UNKNOWN
<configuration>
    <begin value="0"/>
    <end value="900"/>
    <insertion-rate value="8000.0"/>
    <net-file value="/home/franky3er/Documents/code/HieraGLight/scenarios/grid/1x1-500m/train/77-scenario/network.net.xml"/>
    <random value="True"/>
    <random-depart value="True"/>
    <route-file value="/home/franky3er/Documents/code/HieraGLight/scenarios/grid/1x1-500m/train/77-scenario/routes.rou.xml"/>
    <seed value="77"/>
    <output-trip-file value="/home/franky3er/Documents/code/HieraGLight/scenarios/grid/1x1-500m/train/77-scenario/trips.trips.xml"/>
    <vehicle-class value="passenger"/>
</configuration>
-->

<routes xmlns:xsi="http://www.w3.org/2001/XMLSchema-instance" xsi:noNamespaceSchemaLocation="http://sumo.dlr.de/xsd/routes_file.xsd">
    <vType id="passenger" vClass="passenger"/>
    <trip id="0" depart="0.20" from="bottom0A0.250.00" to="bottom0A0.250.00" type="passenger"/>
    <trip id="1" depart="0.25" from="right0A0" to="top0A0.250.00" type="passenger"/>
    <trip id="2" depart="0.65" from="right0A0" to="right0A0.250.00" type="passenger"/>
    <trip id="3" depart="1.60" from="left0A0.250.00" to="right0A0.250.00" type="passenger"/>
    <trip id="4" depart="1.65" from="right0A0" to="top0A0.250.00" type="passenger"/>
    <trip id="5" depart="2.50" from="right0A0.250.00" to="bottom0A0.250.00" type="passenger"/>
    <trip id="6" depart="2.95" from="right0A0" to="A0left0" type="passenger"/>
    <trip id="7" depart="3.40" from="bottom0A0.250.00" to="A0bottom0" type="passenger"/>
    <trip id="8" depart="3.60" from="top0A0" to="top0A0.250.00" type="passenger"/>
    <trip id="9" depart="4.05" from="top0A0" to="top0A0.250.00" type="passenger"/>
    <trip id="10" depart="4.10" from="right0A0.250.00" to="A0top0" type="passenger"/>
    <trip id="11" depart="4.30" from="left0A0.250.00" to="A0right0" type="passenger"/>
    <trip id="12" depart="4.40" from="bottom0A0" to="A0right0" type="passenger"/>
    <trip id="13" depart="5.10" from="bottom0A0.250.00" to="left0A0.250.00" type="passenger"/>
    <trip id="14" depart="5.15" from="bottom0A0" to="left0A0.250.00" type="passenger"/>
    <trip id="15" depart="5.25" from="top0A0" to="left0A0.250.00" type="passenger"/>
    <trip id="16" depart="5.85" from="top0A0.250.00" to="A0left0" type="passenger"/>
    <trip id="17" depart="6.10" from="left0A0" to="A0bottom0" type="passenger"/>
    <trip id="18" depart="6.40" from="left0A0.250.00" to="A0right0" type="passenger"/>
    <trip id="19" depart="7.00" from="left0A0" to="top0A0.250.00" type="passenger"/>
    <trip id="20" depart="7.10" from="bottom0A0.250.00" to="A0bottom0" type="passenger"/>
    <trip id="21" depart="7.15" from="bottom0A0.250.00" to="bottom0A0.250.00" type="passenger"/>
    <trip id="22" depart="7.50" from="left0A0.250.00" to="A0top0" type="passenger"/>
    <trip id="23" depart="8.20" from="top0A0.250.00" to="A0right0" type="passenger"/>
    <trip id="24" depart="8.50" from="left0A0" to="A0top0" type="passenger"/>
    <trip id="25" depart="8.80" from="bottom0A0" to="A0right0" type="passenger"/>
    <trip id="26" depart="9.35" from="right0A0.250.00" to="A0bottom0" type="passenger"/>
    <trip id="27" depart="9.55" from="left0A0.250.00" to="A0bottom0" type="passenger"/>
    <trip id="28" depart="9.70" from="top0A0.250.00" to="right0A0.250.00" type="passenger"/>
    <trip id="29" depart="10.00" from="bottom0A0.250.00" to="A0left0" type="passenger"/>
    <trip id="30" depart="10.05" from="right0A0.250.00" to="A0bottom0" type="passenger"/>
    <trip id="31" depart="10.30" from="top0A0.250.00" to="bottom0A0.250.00" type="passenger"/>
    <trip id="32" depart="10.55" from="right0A0" to="A0top0" type="passenger"/>
    <trip id="33" depart="10.70" from="left0A0" to="A0left0" type="passenger"/>
    <trip id="34" depart="10.95" from="top0A0" to="left0A0.250.00" type="passenger"/>
    <trip id="35" depart="11.35" from="bottom0A0.250.00" to="A0bottom0" type="passenger"/>
    <trip id="36" depart="11.50" from="bottom0A0.250.00" to="right0A0.250.00" type="passenger"/>
    <trip id="37" depart="11.70" from="top0A0" to="A0top0" type="passenger"/>
    <trip id="38" depart="12.05" from="left0A0" to="A0right0" type="passenger"/>
    <trip id="39" depart="12.20" from="top0A0" to="A0bottom0" type="passenger"/>
    <trip id="40" depart="12.20" from="bottom0A0" to="A0left0" type="passenger"/>
    <trip id="41" depart="13.05" from="top0A0.250.00" to="A0left0" type="passenger"/>
    <trip id="42" depart="13.35" from="bottom0A0.250.00" to="A0right0" type="passenger"/>
    <trip id="43" depart="13.40" from="left0A0" to="top0A0.250.00" type="passenger"/>
    <trip id="44" depart="14.40" from="left0A0" to="A0right0" type="passenger"/>
    <trip id="45" depart="14.40" from="top0A0" to="A0bottom0" type="passenger"/>
    <trip id="46" depart="15.20" from="bottom0A0" to="A0left0" type="passenger"/>
    <trip id="47" depart="16.15" from="top0A0" to="A0top0" type="passenger"/>
    <trip id="48" depart="16.20" from="left0A0.250.00" to="left0A0.250.00" type="passenger"/>
    <trip id="49" depart="16.55" from="top0A0" to="left0A0.250.00" type="passenger"/>
    <trip id="50" depart="16.70" from="left0A0.250.00" to="top0A0.250.00" type="passenger"/>
    <trip id="51" depart="17.00" from="bottom0A0.250.00" to="top0A0.250.00" type="passenger"/>
    <trip id="52" depart="17.40" from="right0A0" to="A0top0" type="passenger"/>
    <trip id="53" depart="18.05" from="left0A0" to="right0A0.250.00" type="passenger"/>
    <trip id="54" depart="19.45" from="top0A0.250.00" to="A0left0" type="passenger"/>
    <trip id="55" depart="19.55" from="bottom0A0" to="left0A0.250.00" type="passenger"/>
    <trip id="56" depart="20.50" from="bottom0A0" to="A0top0" type="passenger"/>
    <trip id="57" depart="20.80" from="bottom0A0.250.00" to="bottom0A0.250.00" type="passenger"/>
    <trip id="58" depart="21.50" from="right0A0" to="A0left0" type="passenger"/>
    <trip id="59" depart="22.35" from="top0A0" to="A0right0" type="passenger"/>
    <trip id="60" depart="22.65" from="right0A0" to="right0A0.250.00" type="passenger"/>
    <trip id="61" depart="23.25" from="left0A0" to="right0A0.250.00" type="passenger"/>
    <trip id="62" depart="23.85" from="bottom0A0.250.00" to="A0top0" type="passenger"/>
    <trip id="63" depart="24.00" from="top0A0" to="A0right0" type="passenger"/>
    <trip id="64" depart="24.40" from="top0A0" to="A0right0" type="passenger"/>
    <trip id="65" depart="24.70" from="bottom0A0.250.00" to="left0A0.250.00" type="passenger"/>
    <trip id="66" depart="24.95" from="right0A0" to="A0right0" type="passenger"/>
    <trip id="67" depart="25.15" from="left0A0.250.00" to="A0left0" type="passenger"/>
    <trip id="68" depart="25.30" from="top0A0.250.00" to="left0A0.250.00" type="passenger"/>
    <trip id="69" depart="25.50" from="top0A0" to="bottom0A0.250.00" type="passenger"/>
    <trip id="70" depart="26.45" from="top0A0" to="top0A0.250.00" type="passenger"/>
    <trip id="71" depart="26.95" from="left0A0" to="left0A0.250.00" type="passenger"/>
    <trip id="72" depart="27.55" from="bottom0A0" to="A0bottom0" type="passenger"/>
    <trip id="73" depart="28.95" from="left0A0.250.00" to="top0A0.250.00" type="passenger"/>
    <trip id="74" depart="29.05" from="top0A0.250.00" to="right0A0.250.00" type="passenger"/>
    <trip id="75" depart="29.70" from="bottom0A0" to="A0right0" type="passenger"/>
    <trip id="76" depart="30.10" from="bottom0A0.250.00" to="A0bottom0" type="passenger"/>
    <trip id="77" depart="30.20" from="right0A0.250.00" to="A0right0" type="passenger"/>
    <trip id="78" depart="30.45" from="left0A0" to="A0bottom0" type="passenger"/>
    <trip id="79" depart="30.60" from="right0A0" to="A0top0" type="passenger"/>
    <trip id="80" depart="31.00" from="right0A0" to="left0A0.250.00" type="passenger"/>
    <trip id="81" depart="31.05" from="left0A0.250.00" to="A0left0" type="passenger"/>
    <trip id="82" depart="32.85" from="bottom0A0" to="right0A0.250.00" type="passenger"/>
    <trip id="83" depart="33.55" from="left0A0.250.00" to="A0left0" type="passenger"/>
    <trip id="84" depart="33.85" from="top0A0" to="bottom0A0.250.00" type="passenger"/>
    <trip id="85" depart="34.00" from="right0A0.250.00" to="A0bottom0" type="passenger"/>
    <trip id="86" depart="34.95" from="right0A0.250.00" to="right0A0.250.00" type="passenger"/>
    <trip id="87" depart="35.10" from="bottom0A0.250.00" to="A0right0" type="passenger"/>
    <trip id="88" depart="35.90" from="bottom0A0.250.00" to="A0top0" type="passenger"/>
    <trip id="89" depart="36.65" from="left0A0" to="A0bottom0" type="passenger"/>
    <trip id="90" depart="38.30" from="top0A0.250.00" to="left0A0.250.00" type="passenger"/>
    <trip id="91" depart="38.45" from="bottom0A0.250.00" to="top0A0.250.00" type="passenger"/>
    <trip id="92" depart="38.50" from="bottom0A0.250.00" to="A0top0" type="passenger"/>
    <trip id="93" depart="39.75" from="left0A0.250.00" to="A0top0" type="passenger"/>
    <trip id="94" depart="40.05" from="left0A0" to="left0A0.250.00" type="passenger"/>
    <trip id="95" depart="40.95" from="top0A0" to="A0bottom0" type="passenger"/>
    <trip id="96" depart="41.25" from="top0A0" to="A0bottom0" type="passenger"/>
    <trip id="97" depart="41.45" from="bottom0A0" to="left0A0.250.00" type="passenger"/>
    <trip id="98" depart="41.70" from="left0A0.250.00" to="A0top0" type="passenger"/>
    <trip id="99" depart="41.75" from="top0A0" to="bottom0A0.250.00" type="passenger"/>
    <trip id="100" depart="42.40" from="right0A0.250.00" to="A0top0" type="passenger"/>
    <trip id="101" depart="42.60" from="top0A0" to="left0A0.250.00" type="passenger"/>
    <trip id="102" depart="42.95" from="top0A0" to="bottom0A0.250.00" type="passenger"/>
    <trip id="103" depart="44.50" from="left0A0.250.00" to="bottom0A0.250.00" type="passenger"/>
    <trip id="104" depart="45.00" from="right0A0.250.00" to="right0A0.250.00" type="passenger"/>
    <trip id="105" depart="45.25" from="right0A0.250.00" to="A0bottom0" type="passenger"/>
    <trip id="106" depart="45.25" from="left0A0" to="right0A0.250.00" type="passenger"/>
    <trip id="107" depart="45.90" from="right0A0.250.00" to="top0A0.250.00" type="passenger"/>
    <trip id="108" depart="45.95" from="left0A0" to="right0A0.250.00" type="passenger"/>
    <trip id="109" depart="46.15" from="bottom0A0.250.00" to="left0A0.250.00" type="passenger"/>
    <trip id="110" depart="46.25" from="left0A0" to="A0bottom0" type="passenger"/>
    <trip id="111" depart="47.30" from="bottom0A0" to="right0A0.250.00" type="passenger"/>
    <trip id="112" depart="48.05" from="top0A0.250.00" to="A0bottom0" type="passenger"/>
    <trip id="113" depart="48.25" from="top0A0" to="right0A0.250.00" type="passenger"/>
    <trip id="114" depart="48.95" from="left0A0" to="A0top0" type="passenger"/>
    <trip id="115" depart="49.30" from="right0A0.250.00" to="right0A0.250.00" type="passenger"/>
    <trip id="116" depart="49.50" from="left0A0.250.00" to="right0A0.250.00" type="passenger"/>
    <trip id="117" depart="49.85" from="top0A0" to="bottom0A0.250.00" type="passenger"/>
    <trip id="118" depart="50.75" from="right0A0" to="top0A0.250.00" type="passenger"/>
    <trip id="119" depart="51.15" from="top0A0" to="A0top0" type="passenger"/>
    <trip id="120" depart="51.45" from="bottom0A0.250.00" to="right0A0.250.00" type="passenger"/>
    <trip id="121" depart="51.70" from="right0A0" to="top0A0.250.00" type="passenger"/>
    <trip id="122" depart="52.45" from="bottom0A0" to="top0A0.250.00" type="passenger"/>
    <trip id="123" depart="52.60" from="top0A0" to="A0left0" type="passenger"/>
    <trip id="124" depart="52.85" from="top0A0" to="A0right0" type="passenger"/>
    <trip id="125" depart="53.00" from="bottom0A0" to="right0A0.250.00" type="passenger"/>
    <trip id="126" depart="53.25" from="right0A0.250.00" to="A0top0" type="passenger"/>
    <trip id="127" depart="53.65" from="right0A0.250.00" to="A0bottom0" type="passenger"/>
    <trip id="128" depart="53.65" from="left0A0.250.00" to="bottom0A0.250.00" type="passenger"/>
    <trip id="129" depart="53.75" from="top0A0.250.00" to="A0right0" type="passenger"/>
    <trip id="130" depart="53.95" from="top0A0" to="A0right0" type="passenger"/>
    <trip id="131" depart="55.60" from="right0A0.250.00" to="top0A0.250.00" type="passenger"/>
    <trip id="132" depart="57.20" from="bottom0A0" to="right0A0.250.00" type="passenger"/>
    <trip id="133" depart="57.25" from="right0A0.250.00" to="left0A0.250.00" type="passenger"/>
    <trip id="134" depart="57.50" from="left0A0.250.00" to="right0A0.250.00" type="passenger"/>
    <trip id="135" depart="58.55" from="right0A0" to="top0A0.250.00" type="passenger"/>
    <trip id="136" depart="58.75" from="left0A0" to="left0A0.250.00" type="passenger"/>
    <trip id="137" depart="59.15" from="left0A0" to="top0A0.250.00" type="passenger"/>
    <trip id="138" depart="60.05" from="left0A0" to="top0A0.250.00" type="passenger"/>
    <trip id="139" depart="60.15" from="top0A0.250.00" to="A0bottom0" type="passenger"/>
    <trip id="140" depart="60.25" from="right0A0.250.00" to="A0top0" type="passenger"/>
    <trip id="141" depart="60.75" from="left0A0" to="top0A0.250.00" type="passenger"/>
    <trip id="142" depart="62.35" from="top0A0" to="A0top0" type="passenger"/>
    <trip id="143" depart="62.50" from="right0A0" to="right0A0.250.00" type="passenger"/>
    <trip id="144" depart="62.80" from="bottom0A0" to="bottom0A0.250.00" type="passenger"/>
    <trip id="145" depart="62.85" from="bottom0A0.250.00" to="A0right0" type="passenger"/>
    <trip id="146" depart="63.80" from="top0A0.250.00" to="left0A0.250.00" type="passenger"/>
    <trip id="147" depart="63.90" from="top0A0.250.00" to="top0A0.250.00" type="passenger"/>
    <trip id="148" depart="64.25" from="left0A0" to="bottom0A0.250.00" type="passenger"/>
    <trip id="149" depart="64.40" from="left0A0" to="A0right0" type="passenger"/>
    <trip id="150" depart="64.85" from="bottom0A0.250.00" to="A0bottom0" type="passenger"/>
    <trip id="151" depart="64.90" from="right0A0" to="right0A0.250.00" type="passenger"/>
    <trip id="152" depart="65.00" from="left0A0.250.00" to="right0A0.250.00" type="passenger"/>
    <trip id="153" depart="65.60" from="bottom0A0.250.00" to="A0left0" type="passenger"/>
    <trip id="154" depart="65.70" from="top0A0.250.00" to="top0A0.250.00" type="passenger"/>
    <trip id="155" depart="66.35" from="left0A0.250.00" to="A0right0" type="passenger"/>
    <trip id="156" depart="66.50" from="top0A0" to="A0left0" type="passenger"/>
    <trip id="157" depart="67.35" from="right0A0" to="A0left0" type="passenger"/>
    <trip id="158" depart="68.25" from="right0A0.250.00" to="A0left0" type="passenger"/>
    <trip id="159" depart="68.50" from="right0A0" to="A0bottom0" type="passenger"/>
    <trip id="160" depart="68.55" from="right0A0" to="A0right0" type="passenger"/>
    <trip id="161" depart="69.55" from="right0A0.250.00" to="A0bottom0" type="passenger"/>
    <trip id="162" depart="69.55" from="right0A0" to="A0top0" type="passenger"/>
    <trip id="163" depart="71.00" from="top0A0.250.00" to="A0left0" type="passenger"/>
    <trip id="164" depart="72.70" from="right0A0" to="A0right0" type="passenger"/>
    <trip id="165" depart="73.70" from="left0A0" to="A0right0" type="passenger"/>
    <trip id="166" depart="74.60" from="left0A0.250.00" to="right0A0.250.00" type="passenger"/>
    <trip id="167" depart="75.60" from="right0A0.250.00" to="A0right0" type="passenger"/>
    <trip id="168" depart="76.00" from="top0A0.250.00" to="left0A0.250.00" type="passenger"/>
    <trip id="169" depart="76.20" from="left0A0.250.00" to="A0top0" type="passenger"/>
    <trip id="170" depart="76.85" from="left0A0.250.00" to="A0top0" type="passenger"/>
    <trip id="171" depart="77.00" from="bottom0A0.250.00" to="A0left0" type="passenger"/>
    <trip id="172" depart="77.00" from="top0A0" to="top0A0.250.00" type="passenger"/>
    <trip id="173" depart="77.40" from="right0A0" to="A0right0" type="passenger"/>
    <trip id="174" depart="77.75" from="left0A0" to="right0A0.250.00" type="passenger"/>
    <trip id="175" depart="77.95" from="right0A0" to="A0top0" type="passenger"/>
    <trip id="176" depart="77.95" from="top0A0" to="left0A0.250.00" type="passenger"/>
    <trip id="177" depart="78.55" from="top0A0" to="right0A0.250.00" type="passenger"/>
    <trip id="178" depart="78.60" from="top0A0.250.00" to="bottom0A0.250.00" type="passenger"/>
    <trip id="179" depart="78.75" from="right0A0" to="bottom0A0.250.00" type="passenger"/>
    <trip id="180" depart="78.95" from="right0A0" to="A0top0" type="passenger"/>
    <trip id="181" depart="79.30" from="top0A0.250.00" to="A0top0" type="passenger"/>
    <trip id="182" depart="79.60" from="bottom0A0" to="A0left0" type="passenger"/>
    <trip id="183" depart="79.75" from="bottom0A0" to="bottom0A0.250.00" type="passenger"/>
    <trip id="184" depart="80.30" from="left0A0.250.00" to="right0A0.250.00" type="passenger"/>
    <trip id="185" depart="81.00" from="left0A0" to="A0top0" type="passenger"/>
    <trip id="186" depart="81.55" from="bottom0A0" to="right0A0.250.00" type="passenger"/>
    <trip id="187" depart="81.85" from="top0A0.250.00" to="left0A0.250.00" type="passenger"/>
    <trip id="188" depart="81.90" from="left0A0" to="A0right0" type="passenger"/>
    <trip id="189" depart="82.70" from="top0A0.250.00" to="A0left0" type="passenger"/>
    <trip id="190" depart="82.95" from="bottom0A0" to="A0right0" type="passenger"/>
    <trip id="191" depart="83.05" from="top0A0.250.00" to="A0left0" type="passenger"/>
    <trip id="192" depart="83.30" from="left0A0" to="left0A0.250.00" type="passenger"/>
    <trip id="193" depart="85.10" from="right0A0" to="A0left0" type="passenger"/>
    <trip id="194" depart="85.25" from="bottom0A0.250.00" to="right0A0.250.00" type="passenger"/>
    <trip id="195" depart="86.45" from="right0A0" to="bottom0A0.250.00" type="passenger"/>
    <trip id="196" depart="88.85" from="left0A0" to="A0top0" type="passenger"/>
    <trip id="197" depart="89.45" from="top0A0" to="A0right0" type="passenger"/>
    <trip id="198" depart="90.30" from="left0A0" to="A0top0" type="passenger"/>
    <trip id="199" depart="90.45" from="top0A0.250.00" to="A0right0" type="passenger"/>
    <trip id="200" depart="90.75" from="top0A0" to="A0top0" type="passenger"/>
    <trip id="201" depart="91.50" from="right0A0" to="bottom0A0.250.00" type="passenger"/>
    <trip id="202" depart="92.05" from="bottom0A0" to="left0A0.250.00" type="passenger"/>
    <trip id="203" depart="92.35" from="top0A0" to="left0A0.250.00" type="passenger"/>
    <trip id="204" depart="92.50" from="top0A0.250.00" to="A0top0" type="passenger"/>
    <trip id="205" depart="92.55" from="right0A0" to="top0A0.250.00" type="passenger"/>
    <trip id="206" depart="93.00" from="right0A0.250.00" to="bottom0A0.250.00" type="passenger"/>
    <trip id="207" depart="93.35" from="bottom0A0.250.00" to="A0right0" type="passenger"/>
    <trip id="208" depart="93.40" from="bottom0A0" to="A0top0" type="passenger"/>
    <trip id="209" depart="93.90" from="bottom0A0.250.00" to="A0left0" type="passenger"/>
    <trip id="210" depart="95.10" from="bottom0A0" to="left0A0.250.00" type="passenger"/>
    <trip id="211" depart="95.50" from="left0A0" to="A0bottom0" type="passenger"/>
    <trip id="212" depart="95.75" from="bottom0A0.250.00" to="A0right0" type="passenger"/>
    <trip id="213" depart="97.50" from="left0A0.250.00" to="A0left0" type="passenger"/>
    <trip id="214" depart="97.75" from="bottom0A0.250.00" to="bottom0A0.250.00" type="passenger"/>
    <trip id="215" depart="97.80" from="bottom0A0.250.00" to="bottom0A0.250.00" type="passenger"/>
    <trip id="216" depart="98.00" from="left0A0" to="bottom0A0.250.00" type="passenger"/>
    <trip id="217" depart="99.20" from="bottom0A0.250.00" to="right0A0.250.00" type="passenger"/>
    <trip id="218" depart="99.25" from="bottom0A0.250.00" to="right0A0.250.00" type="passenger"/>
    <trip id="219" depart="99.45" from="left0A0" to="A0top0" type="passenger"/>
    <trip id="220" depart="100.45" from="right0A0.250.00" to="right0A0.250.00" type="passenger"/>
    <trip id="221" depart="101.05" from="top0A0.250.00" to="A0top0" type="passenger"/>
    <trip id="222" depart="101.15" from="right0A0" to="top0A0.250.00" type="passenger"/>
    <trip id="223" depart="101.75" from="bottom0A0" to="A0left0" type="passenger"/>
    <trip id="224" depart="101.80" from="top0A0" to="right0A0.250.00" type="passenger"/>
    <trip id="225" depart="102.10" from="bottom0A0.250.00" to="top0A0.250.00" type="passenger"/>
    <trip id="226" depart="102.85" from="left0A0" to="A0right0" type="passenger"/>
    <trip id="227" depart="104.10" from="left0A0" to="A0bottom0" type="passenger"/>
    <trip id="228" depart="104.15" from="bottom0A0" to="A0bottom0" type="passenger"/>
    <trip id="229" depart="104.30" from="right0A0" to="top0A0.250.00" type="passenger"/>
    <trip id="230" depart="105.25" from="bottom0A0" to="bottom0A0.250.00" type="passenger"/>
    <trip id="231" depart="105.50" from="left0A0.250.00" to="A0top0" type="passenger"/>
    <trip id="232" depart="105.65" from="right0A0.250.00" to="left0A0.250.00" type="passenger"/>
    <trip id="233" depart="105.80" from="right0A0" to="right0A0.250.00" type="passenger"/>
    <trip id="234" depart="106.30" from="left0A0" to="A0left0" type="passenger"/>
    <trip id="235" depart="107.25" from="top0A0" to="bottom0A0.250.00" type="passenger"/>
    <trip id="236" depart="107.35" from="bottom0A0.250.00" to="A0bottom0" type="passenger"/>
    <trip id="237" depart="107.90" from="top0A0.250.00" to="top0A0.250.00" type="passenger"/>
    <trip id="238" depart="108.10" from="bottom0A0" to="A0right0" type="passenger"/>
    <trip id="239" depart="108.95" from="bottom0A0.250.00" to="left0A0.250.00" type="passenger"/>
    <trip id="240" depart="109.75" from="right0A0.250.00" to="A0right0" type="passenger"/>
    <trip id="241" depart="109.80" from="bottom0A0" to="A0right0" type="passenger"/>
    <trip id="242" depart="110.10" from="right0A0" to="right0A0.250.00" type="passenger"/>
    <trip id="243" depart="110.50" from="left0A0" to="A0bottom0" type="passenger"/>
    <trip id="244" depart="110.60" from="top0A0.250.00" to="A0right0" type="passenger"/>
    <trip id="245" depart="112.85" from="right0A0" to="A0left0" type="passenger"/>
    <trip id="246" depart="113.15" from="bottom0A0.250.00" to="bottom0A0.250.00" type="passenger"/>
    <trip id="247" depart="113.20" from="left0A0.250.00" to="bottom0A0.250.00" type="passenger"/>
    <trip id="248" depart="113.40" from="left0A0" to="right0A0.250.00" type="passenger"/>
    <trip id="249" depart="113.75" from="top0A0" to="right0A0.250.00" type="passenger"/>
    <trip id="250" depart="114.55" from="top0A0.250.00" to="right0A0.250.00" type="passenger"/>
    <trip id="251" depart="114.85" from="bottom0A0" to="left0A0.250.00" type="passenger"/>
    <trip id="252" depart="115.15" from="top0A0" to="top0A0.250.00" type="passenger"/>
    <trip id="253" depart="115.30" from="right0A0.250.00" to="A0top0" type="passenger"/>
    <trip id="254" depart="115.35" from="right0A0.250.00" to="bottom0A0.250.00" type="passenger"/>
    <trip id="255" depart="115.85" from="bottom0A0.250.00" to="A0right0" type="passenger"/>
    <trip id="256" depart="116.25" from="top0A0" to="A0bottom0" type="passenger"/>
    <trip id="257" depart="116.75" from="bottom0A0" to="A0bottom0" type="passenger"/>
    <trip id="258" depart="116.75" from="left0A0" to="bottom0A0.250.00" type="passenger"/>
    <trip id="259" depart="117.70" from="bottom0A0.250.00" to="bottom0A0.250.00" type="passenger"/>
    <trip id="260" depart="118.00" from="right0A0.250.00" to="A0right0" type="passenger"/>
    <trip id="261" depart="118.10" from="right0A0" to="A0right0" type="passenger"/>
    <trip id="262" depart="118.20" from="right0A0.250.00" to="A0left0" type="passenger"/>
    <trip id="263" depart="118.25" from="bottom0A0" to="bottom0A0.250.00" type="passenger"/>
    <trip id="264" depart="119.15" from="right0A0.250.00" to="A0bottom0" type="passenger"/>
    <trip id="265" depart="119.40" from="top0A0" to="right0A0.250.00" type="passenger"/>
    <trip id="266" depart="119.75" from="right0A0" to="A0right0" type="passenger"/>
    <trip id="267" depart="120.65" from="top0A0.250.00" to="right0A0.250.00" type="passenger"/>
    <trip id="268" depart="120.85" from="right0A0.250.00" to="A0top0" type="passenger"/>
    <trip id="269" depart="121.15" from="left0A0.250.00" to="left0A0.250.00" type="passenger"/>
    <trip id="270" depart="121.45" from="left0A0.250.00" to="right0A0.250.00" type="passenger"/>
    <trip id="271" depart="121.70" from="right0A0.250.00" to="bottom0A0.250.00" type="passenger"/>
    <trip id="272" depart="121.85" from="right0A0" to="A0left0" type="passenger"/>
    <trip id="273" depart="122.00" from="bottom0A0" to="A0right0" type="passenger"/>
    <trip id="274" depart="122.90" from="bottom0A0" to="right0A0.250.00" type="passenger"/>
    <trip id="275" depart="123.00" from="bottom0A0" to="A0left0" type="passenger"/>
    <trip id="276" depart="124.70" from="top0A0.250.00" to="top0A0.250.00" type="passenger"/>
    <trip id="277" depart="125.45" from="top0A0" to="bottom0A0.250.00" type="passenger"/>
    <trip id="278" depart="126.05" from="top0A0.250.00" to="A0bottom0" type="passenger"/>
    <trip id="279" depart="126.35" from="bottom0A0" to="A0top0" type="passenger"/>
    <trip id="280" depart="126.45" from="right0A0" to="A0right0" type="passenger"/>
    <trip id="281" depart="126.50" from="bottom0A0" to="A0top0" type="passenger"/>
    <trip id="282" depart="126.75" from="left0A0" to="A0left0" type="passenger"/>
    <trip id="283" depart="127.15" from="left0A0" to="A0bottom0" type="passenger"/>
    <trip id="284" depart="127.90" from="right0A0.250.00" to="right0A0.250.00" type="passenger"/>
    <trip id="285" depart="128.05" from="top0A0.250.00" to="bottom0A0.250.00" type="passenger"/>
    <trip id="286" depart="128.15" from="right0A0" to="left0A0.250.00" type="passenger"/>
    <trip id="287" depart="128.35" from="top0A0.250.00" to="left0A0.250.00" type="passenger"/>
    <trip id="288" depart="129.40" from="left0A0.250.00" to="A0bottom0" type="passenger"/>
    <trip id="289" depart="129.70" from="bottom0A0.250.00" to="left0A0.250.00" type="passenger"/>
    <trip id="290" depart="130.45" from="bottom0A0" to="left0A0.250.00" type="passenger"/>
    <trip id="291" depart="130.60" from="right0A0" to="bottom0A0.250.00" type="passenger"/>
    <trip id="292" depart="131.00" from="left0A0" to="A0left0" type="passenger"/>
    <trip id="293" depart="131.35" from="left0A0.250.00" to="bottom0A0.250.00" type="passenger"/>
    <trip id="294" depart="131.90" from="bottom0A0.250.00" to="right0A0.250.00" type="passenger"/>
    <trip id="295" depart="131.95" from="bottom0A0" to="A0top0" type="passenger"/>
    <trip id="296" depart="132.65" from="right0A0" to="right0A0.250.00" type="passenger"/>
    <trip id="297" depart="133.35" from="bottom0A0" to="A0top0" type="passenger"/>
    <trip id="298" depart="133.80" from="left0A0.250.00" to="left0A0.250.00" type="passenger"/>
    <trip id="299" depart="135.35" from="top0A0.250.00" to="A0top0" type="passenger"/>
    <trip id="300" depart="136.10" from="top0A0" to="top0A0.250.00" type="passenger"/>
    <trip id="301" depart="136.20" from="right0A0.250.00" to="top0A0.250.00" type="passenger"/>
    <trip id="302" depart="136.75" from="bottom0A0.250.00" to="A0bottom0" type="passenger"/>
    <trip id="303" depart="137.10" from="top0A0" to="A0right0" type="passenger"/>
    <trip id="304" depart="138.75" from="bottom0A0" to="A0top0" type="passenger"/>
    <trip id="305" depart="138.85" from="bottom0A0" to="A0right0" type="passenger"/>
    <trip id="306" depart="138.90" from="top0A0" to="left0A0.250.00" type="passenger"/>
    <trip id="307" depart="139.25" from="right0A0" to="A0right0" type="passenger"/>
    <trip id="308" depart="139.45" from="top0A0" to="left0A0.250.00" type="passenger"/>
    <trip id="309" depart="139.70" from="top0A0.250.00" to="bottom0A0.250.00" type="passenger"/>
    <trip id="310" depart="140.15" from="bottom0A0" to="A0right0" type="passenger"/>
    <trip id="311" depart="140.60" from="bottom0A0.250.00" to="A0right0" type="passenger"/>
    <trip id="312" depart="141.40" from="left0A0.250.00" to="top0A0.250.00" type="passenger"/>
    <trip id="313" depart="141.60" from="top0A0" to="A0bottom0" type="passenger"/>
    <trip id="314" depart="142.65" from="bottom0A0.250.00" to="right0A0.250.00" type="passenger"/>
    <trip id="315" depart="143.35" from="left0A0" to="A0right0" type="passenger"/>
    <trip id="316" depart="143.55" from="left0A0" to="A0top0" type="passenger"/>
    <trip id="317" depart="143.60" from="left0A0" to="A0bottom0" type="passenger"/>
    <trip id="318" depart="144.30" from="right0A0.250.00" to="A0top0" type="passenger"/>
    <trip id="319" depart="145.15" from="right0A0" to="left0A0.250.00" type="passenger"/>
    <trip id="320" depart="145.95" from="right0A0.250.00" to="bottom0A0.250.00" type="passenger"/>
    <trip id="321" depart="146.20" from="bottom0A0.250.00" to="A0right0" type="passenger"/>
    <trip id="322" depart="146.55" from="left0A0.250.00" to="right0A0.250.00" type="passenger"/>
    <trip id="323" depart="146.65" from="top0A0.250.00" to="top0A0.250.00" type="passenger"/>
    <trip id="324" depart="146.80" from="bottom0A0" to="A0right0" type="passenger"/>
    <trip id="325" depart="147.00" from="bottom0A0" to="left0A0.250.00" type="passenger"/>
    <trip id="326" depart="147.80" from="right0A0" to="right0A0.250.00" type="passenger"/>
    <trip id="327" depart="148.15" from="bottom0A0" to="A0left0" type="passenger"/>