<?xml version="1.0" encoding="UTF-8"?>

<!-- generated on 2023-04-26 16:56:41.540874 by randomTrips.py UNKNOWN
<configuration>
    <begin value="0"/>
    <end value="900"/>
    <insertion-rate value="8000.0"/>
    <net-file value="/home/franky3er/Documents/code/HieraGLight/scenarios/grid/1x1-500m/train/18-scenario/network.net.xml"/>
    <random value="True"/>
    <random-depart value="True"/>
    <route-file value="/home/franky3er/Documents/code/HieraGLight/scenarios/grid/1x1-500m/train/18-scenario/routes.rou.xml"/>
    <seed value="18"/>
    <output-trip-file value="/home/franky3er/Documents/code/HieraGLight/scenarios/grid/1x1-500m/train/18-scenario/trips.trips.xml"/>
    <vehicle-class value="passenger"/>
</configuration>
-->

<!-- generated on 2023-04-26 16:56:41 by Eclipse SUMO duarouter Version 1.16.0
<configuration xmlns:xsi="http://www.w3.org/2001/XMLSchema-instance" xsi:noNamespaceSchemaLocation="http://sumo.dlr.de/xsd/duarouterConfiguration.xsd">

    <input>
        <net-file value="/home/franky3er/Documents/code/HieraGLight/scenarios/grid/1x1-500m/train/18-scenario/network.net.xml"/>
        <route-files value="/home/franky3er/Documents/code/HieraGLight/scenarios/grid/1x1-500m/train/18-scenario/trips.trips.xml"/>
    </input>

    <output>
        <output-file value="/home/franky3er/Documents/code/HieraGLight/scenarios/grid/1x1-500m/train/18-scenario/routes.rou.xml"/>
        <alternatives-output value="NUL"/>
    </output>

    <time>
        <begin value="0"/>
        <end value="900"/>
    </time>

    <report>
        <no-warnings value="true"/>
        <ignore-errors value="true"/>
        <no-step-log value="true"/>
    </report>

</configuration>
-->

<routes xmlns:xsi="http://www.w3.org/2001/XMLSchema-instance" xsi:noNamespaceSchemaLocation="http://sumo.dlr.de/xsd/routes_file.xsd">
    <vType id="passenger" vClass="passenger"/>
    <vehicle id="1" type="passenger" depart="2.35">
        <route edges="left0A0 left0A0.250.00 A0top0"/>
    </vehicle>
    <vehicle id="3" type="passenger" depart="4.60">
        <route edges="bottom0A0.250.00 A0right0"/>
    </vehicle>
    <vehicle id="5" type="passenger" depart="5.65">
        <route edges="left0A0.250.00 A0bottom0"/>
    </vehicle>
    <vehicle id="6" type="passenger" depart="5.70">
        <route edges="right0A0.250.00 A0top0"/>
    </vehicle>
    <vehicle id="7" type="passenger" depart="6.10">
        <route edges="bottom0A0 bottom0A0.250.00 A0left0"/>
    </vehicle>
    <vehicle id="11" type="passenger" depart="8.40">
        <route edges="top0A0 top0A0.250.00 A0bottom0"/>
    </vehicle>
    <vehicle id="14" type="passenger" depart="9.20">
        <route edges="bottom0A0 bottom0A0.250.00 A0top0"/>
    </vehicle>
    <vehicle id="18" type="passenger" depart="10.25">
        <route edges="bottom0A0.250.00 A0right0"/>
    </vehicle>
    <vehicle id="19" type="passenger" depart="10.35">
        <route edges="bottom0A0 bottom0A0.250.00 A0top0"/>
    </vehicle>
    <vehicle id="21" type="passenger" depart="11.10">
        <route edges="right0A0 right0A0.250.00 A0left0"/>
    </vehicle>
    <vehicle id="24" type="passenger" depart="11.90">
        <route edges="right0A0.250.00 A0top0"/>
    </vehicle>
    <vehicle id="25" type="passenger" depart="12.10">
        <route edges="top0A0.250.00 A0bottom0"/>
    </vehicle>
    <vehicle id="27" type="passenger" depart="13.40">
        <route edges="bottom0A0.250.00 A0right0"/>
    </vehicle>
    <vehicle id="33" type="passenger" depart="14.45">
        <route edges="left0A0 left0A0.250.00 A0bottom0"/>
    </vehicle>
    <vehicle id="34" type="passenger" depart="14.50">
        <route edges="left0A0 left0A0.250.00 A0top0"/>
    </vehicle>
    <vehicle id="39" type="passenger" depart="16.90">
        <route edges="top0A0 top0A0.250.00"/>
    </vehicle>
    <vehicle id="40" type="passenger" depart="17.00">
        <route edges="top0A0.250.00 A0bottom0"/>
    </vehicle>
    <vehicle id="41" type="passenger" depart="17.95">
        <route edges="right0A0 right0A0.250.00"/>
    </vehicle>
    <vehicle id="45" type="passenger" depart="24.90">
        <route edges="left0A0 left0A0.250.00 A0top0"/>
    </vehicle>
    <vehicle id="46" type="passenger" depart="26.15">
        <route edges="left0A0.250.00 A0right0"/>
    </vehicle>
    <vehicle id="47" type="passenger" depart="26.25">
        <route edges="right0A0.250.00"/>
    </vehicle>
    <vehicle id="48" type="passenger" depart="26.55">
        <route edges="bottom0A0 bottom0A0.250.00 A0top0"/>
    </vehicle>
    <vehicle id="49" type="passenger" depart="26.75">
        <route edges="right0A0.250.00 A0bottom0"/>
    </vehicle>
    <vehicle id="51" type="passenger" depart="29.55">
        <route edges="top0A0 top0A0.250.00 A0bottom0"/>
    </vehicle>
    <vehicle id="53" type="passenger" depart="30.35">
        <route edges="top0A0.250.00"/>
    </vehicle>
    <vehicle id="54" type="passenger" depart="31.05">
        <route edges="top0A0 top0A0.250.00"/>
    </vehicle>
    <vehicle id="55" type="passenger" depart="32.05">
        <route edges="left0A0 left0A0.250.00"/>
    </vehicle>
    <vehicle id="56" type="passenger" depart="32.05">
        <route edges="right0A0 right0A0.250.00"/>
    </vehicle>
    <vehicle id="57" type="passenger" depart="32.85">
        <route edges="top0A0.250.00"/>
    </vehicle>
    <vehicle id="58" type="passenger" depart="33.05">
        <route edges="top0A0 top0A0.250.00"/>
    </vehicle>
    <vehicle id="59" type="passenger" depart="33.30">
        <route edges="top0A0 top0A0.250.00 A0right0"/>
    </vehicle>
    <vehicle id="62" type="passenger" depart="33.65">
        <route edges="right0A0 right0A0.250.00 A0top0"/>
    </vehicle>
    <vehicle id="64" type="passenger" depart="34.35">
        <route edges="bottom0A0.250.00 A0right0"/>
    </vehicle>
    <vehicle id="68" type="passenger" depart="37.30">
        <route edges="right0A0 right0A0.250.00 A0bottom0"/>
    </vehicle>
    <vehicle id="69" type="passenger" depart="37.90">
        <route edges="bottom0A0 bottom0A0.250.00 A0top0"/>
    </vehicle>
    <vehicle id="71" type="passenger" depart="39.75">
        <route edges="right0A0 right0A0.250.00 A0left0"/>
    </vehicle>
    <vehicle id="73" type="passenger" depart="40.00">
        <route edges="left0A0.250.00 A0bottom0"/>
    </vehicle>
    <vehicle id="74" type="passenger" depart="40.15">
        <route edges="right0A0.250.00 A0left0"/>
    </vehicle>
    <vehicle id="78" type="passenger" depart="41.15">
        <route edges="right0A0.250.00 A0top0"/>
    </vehicle>
    <vehicle id="79" type="passenger" depart="41.55">
        <route edges="bottom0A0.250.00 A0right0"/>
    </vehicle>
    <vehicle id="80" type="passenger" depart="42.25">
        <route edges="bottom0A0.250.00 A0left0"/>
    </vehicle>
    <vehicle id="81" type="passenger" depart="42.45">
        <route edges="bottom0A0.250.00 A0left0"/>
    </vehicle>
    <vehicle id="82" type="passenger" depart="43.30">
        <route edges="bottom0A0.250.00 A0top0"/>
    </vehicle>
    <vehicle id="84" type="passenger" depart="45.50">
        <route edges="left0A0 left0A0.250.00"/>
    </vehicle>
    <vehicle id="89" type="passenger" depart="47.05">
        <route edges="bottom0A0.250.00"/>
    </vehicle>
    <vehicle id="90" type="passenger" depart="47.35">
        <route edges="left0A0 left0A0.250.00 A0bottom0"/>
    </vehicle>
    <vehicle id="92" type="passenger" depart="49.55">
        <route edges="bottom0A0 bottom0A0.250.00"/>
    </vehicle>
    <vehicle id="93" type="passenger" depart="49.70">
        <route edges="right0A0 right0A0.250.00 A0bottom0"/>
    </vehicle>
    <vehicle id="94" type="passenger" depart="49.85">
        <route edges="right0A0.250.00"/>
    </vehicle>
    <vehicle id="95" type="passenger" depart="49.95">
        <route edges="top0A0.250.00 A0right0"/>
    </vehicle>
    <vehicle id="98" type="passenger" depart="51.00">
        <route edges="bottom0A0.250.00 A0top0"/>
    </vehicle>
    <vehicle id="99" type="passenger" depart="51.65">
        <route edges="top0A0 top0A0.250.00 A0bottom0"/>
    </vehicle>
    <vehicle id="100" type="passenger" depart="52.00">
        <route edges="left0A0 left0A0.250.00 A0top0"/>
    </vehicle>
    <vehicle id="102" type="passenger" depart="52.45">
        <route edges="right0A0.250.00"/>
    </vehicle>
    <vehicle id="105" type="passenger" depart="53.50">
        <route edges="right0A0 right0A0.250.00 A0top0"/>
    </vehicle>
    <vehicle id="109" type="passenger" depart="55.30">
        <route edges="bottom0A0 bottom0A0.250.00 A0left0"/>
    </vehicle>
    <vehicle id="111" type="passenger" depart="55.45">
        <route edges="left0A0 left0A0.250.00 A0right0"/>
    </vehicle>
    <vehicle id="112" type="passenger" depart="55.55">
        <route edges="left0A0.250.00 A0bottom0"/>
    </vehicle>
    <vehicle id="116" type="passenger" depart="56.75">
        <route edges="left0A0 left0A0.250.00 A0bottom0"/>
    </vehicle>
    <vehicle id="120" type="passenger" depart="57.60">
        <route edges="right0A0 right0A0.250.00 A0left0"/>
    </vehicle>
    <vehicle id="121" type="passenger" depart="57.70">
        <route edges="right0A0.250.00"/>
    </vehicle>
    <vehicle id="123" type="passenger" depart="58.00">
        <route edges="left0A0.250.00"/>
    </vehicle>
    <vehicle id="125" type="passenger" depart="59.05">
        <route edges="left0A0 left0A0.250.00 A0right0"/>
    </vehicle>
    <vehicle id="126" type="passenger" depart="60.50">
        <route edges="bottom0A0 bottom0A0.250.00 A0top0"/>
    </vehicle>
    <vehicle id="127" type="passenger" depart="60.60">
        <route edges="left0A0 left0A0.250.00 A0right0"/>
    </vehicle>
    <vehicle id="128" type="passenger" depart="61.55">
        <route edges="top0A0.250.00 A0bottom0"/>
    </vehicle>
    <vehicle id="130" type="passenger" depart="62.40">
        <route edges="bottom0A0 bottom0A0.250.00 A0top0"/>
    </vehicle>
    <vehicle id="131" type="passenger" depart="62.70">
        <route edges="bottom0A0.250.00 A0top0"/>
    </vehicle>
    <vehicle id="132" type="passenger" depart="63.10">
        <route edges="left0A0.250.00 A0top0"/>
    </vehicle>
    <vehicle id="137" type="passenger" depart="64.85">
        <route edges="top0A0 top0A0.250.00"/>
    </vehicle>
    <vehicle id="138" type="passenger" depart="65.15">
        <route edges="top0A0 top0A0.250.00 A0bottom0"/>
    </vehicle>
    <vehicle id="139" type="passenger" depart="65.30">
        <route edges="bottom0A0.250.00"/>
    </vehicle>
    <vehicle id="140" type="passenger" depart="66.40">
        <route edges="left0A0.250.00 A0right0"/>
    </vehicle>
    <vehicle id="141" type="passenger" depart="66.60">
        <route edges="bottom0A0 bottom0A0.250.00"/>
    </vehicle>
    <vehicle id="145" type="passenger" depart="68.05">
        <route edges="bottom0A0 bottom0A0.250.00 A0left0"/>
    </vehicle>
    <vehicle id="146" type="passenger" depart="69.10">
        <route edges="right0A0 right0A0.250.00 A0top0"/>
    </vehicle>
    <vehicle id="147" type="passenger" depart="69.15">
        <route edges="top0A0.250.00 A0bottom0"/>
    </vehicle>
    <vehicle id="149" type="passenger" depart="69.35">
        <route edges="bottom0A0 bottom0A0.250.00 A0top0"/>
    </vehicle>
    <vehicle id="150" type="passenger" depart="69.40">
        <route edges="top0A0 top0A0.250.00 A0left0"/>
    </vehicle>
    <vehicle id="151" type="passenger" depart="70.00">
        <route edges="bottom0A0.250.00"/>
    </vehicle>
    <vehicle id="153" type="passenger" depart="71.80">
        <route edges="top0A0.250.00 A0left0"/>
    </vehicle>
    <vehicle id="154" type="passenger" depart="72.05">
        <route edges="left0A0.250.00 A0bottom0"/>
    </vehicle>
    <vehicle id="156" type="passenger" depart="72.10">
        <route edges="right0A0.250.00 A0bottom0"/>
    </vehicle>
    <vehicle id="157" type="passenger" depart="72.15">
        <route edges="right0A0 right0A0.250.00"/>
    </vehicle>
    <vehicle id="161" type="passenger" depart="75.55">
        <route edges="bottom0A0.250.00 A0top0"/>
    </vehicle>
    <vehicle id="163" type="passenger" depart="76.60">
        <route edges="left0A0 left0A0.250.00 A0top0"/>
    </vehicle>
    <vehicle id="164" type="passenger" depart="76.70">
        <route edges="top0A0 top0A0.250.00"/>
    </vehicle>
    <vehicle id="169" type="passenger" depart="78.75">
        <route edges="right0A0 right0A0.250.00 A0left0"/>
    </vehicle>
    <vehicle id="174" type="passenger" depart="82.10">
        <route edges="top0A0 top0A0.250.00 A0right0"/>
    </vehicle>
    <vehicle id="176" type="passenger" depart="83.10">
        <route edges="left0A0 left0A0.250.00"/>
    </vehicle>
    <vehicle id="179" type="passenger" depart="84.70">
        <route edges="left0A0.250.00 A0top0"/>
    </vehicle>
    <vehicle id="180" type="passenger" depart="85.45">
        <route edges="right0A0 right0A0.250.00 A0top0"/>
    </vehicle>
    <vehicle id="183" type="passenger" depart="86.55">
        <route edges="top0A0 top0A0.250.00 A0right0"/>
    </vehicle>
    <vehicle id="184" type="passenger" depart="86.65">
        <route edges="bottom0A0 bottom0A0.250.00 A0top0"/>
    </vehicle>
    <vehicle id="185" type="passenger" depart="86.65">
        <route edges="left0A0.250.00 A0bottom0"/>
    </vehicle>
    <vehicle id="186" type="passenger" depart="87.65">
        <route edges="left0A0.250.00 A0bottom0"/>
    </vehicle>
    <vehicle id="189" type="passenger" depart="88.85">
        <route edges="bottom0A0 bottom0A0.250.00 A0top0"/>
    </vehicle>
    <vehicle id="192" type="passenger" depart="90.95">
        <route edges="right0A0 right0A0.250.00"/>
    </vehicle>
    <vehicle id="197" type="passenger" depart="94.40">
        <route edges="top0A0.250.00 A0bottom0"/>
    </vehicle>
    <vehicle id="198" type="passenger" depart="94.80">
        <route edges="bottom0A0 bottom0A0.250.00"/>
    </vehicle>
    <vehicle id="201" type="passenger" depart="96.40">
        <route edges="bottom0A0.250.00 A0right0"/>
    </vehicle>
    <vehicle id="202" type="passenger" depart="96.85">
        <route edges="top0A0.250.00 A0right0"/>
    </vehicle>
    <vehicle id="205" type="passenger" depart="98.15">
        <route edges="bottom0A0.250.00 A0left0"/>
    </vehicle>
    <vehicle id="208" type="passenger" depart="99.40">
        <route edges="left0A0 left0A0.250.00 A0bottom0"/>
    </vehicle>
    <vehicle id="209" type="passenger" depart="99.90">
        <route edges="left0A0 left0A0.250.00 A0bottom0"/>
    </vehicle>
    <vehicle id="210" type="passenger" depart="99.95">
        <route edges="left0A0.250.00"/>
    </vehicle>
    <vehicle id="211" type="passenger" depart="100.05">
        <route edges="top0A0 top0A0.250.00 A0left0"/>
    </vehicle>
    <vehicle id="212" type="passenger" depart="100.95">
        <route edges="right0A0 right0A0.250.00 A0top0"/>
    </vehicle>
    <vehicle id="218" type="passenger" depart="103.25">
        <route edges="right0A0.250.00"/>
    </vehicle>
    <vehicle id="219" type="passenger" depart="103.55">
        <route edges="right0A0 right0A0.250.00 A0left0"/>
    </vehicle>
    <vehicle id="222" type="passenger" depart="105.35">
        <route edges="top0A0 top0A0.250.00 A0bottom0"/>
    </vehicle>
    <vehicle id="224" type="passenger" depart="105.80">
        <route edges="left0A0 left0A0.250.00 A0top0"/>
    </vehicle>
    <vehicle id="227" type="passenger" depart="106.40">
        <route edges="right0A0 right0A0.250.00"/>
    </vehicle>
    <vehicle id="228" type="passenger" depart="106.55">
        <route edges="top0A0 top0A0.250.00 A0bottom0"/>
    </vehicle>
    <vehicle id="229" type="passenger" depart="106.85">
        <route edges="bottom0A0 bottom0A0.250.00"/>
    </vehicle>
    <vehicle id="231" type="passenger" depart="107.60">
        <route edges="left0A0.250.00 A0bottom0"/>
    </vehicle>
    <vehicle id="233" type="passenger" depart="107.90">
        <route edges="top0A0.250.00 A0right0"/>
    </vehicle>
    <vehicle id="234" type="passenger" depart="108.00">
        <route edges="right0A0 right0A0.250.00"/>
    </vehicle>
    <vehicle id="235" type="passenger" depart="109.15">
        <route edges="top0A0.250.00 A0bottom0"/>
    </vehicle>
    <vehicle id="238" type="passenger" depart="110.40">
        <route edges="left0A0.250.00 A0bottom0"/>
    </vehicle>
    <vehicle id="241" type="passenger" depart="111.00">
        <route edges="left0A0.250.00 A0top0"/>
    </vehicle>
    <vehicle id="242" type="passenger" depart="111.05">
        <route edges="left0A0 left0A0.250.00 A0right0"/>
    </vehicle>
    <vehicle id="243" type="passenger" depart="111.15">
        <route edges="left0A0 left0A0.250.00 A0right0"/>
    </vehicle>
    <vehicle id="244" type="passenger" depart="112.50">
        <route edges="right0A0.250.00 A0bottom0"/>
    </vehicle>
    <vehicle id="246" type="passenger" depart="113.40">
        <route edges="top0A0 top0A0.250.00"/>
    </vehicle>
    <vehicle id="247" type="passenger" depart="114.80">
        <route edges="bottom0A0 bottom0A0.250.00 A0top0"/>
    </vehicle>
    <vehicle id="249" type="passenger" depart="115.30">
        <route edges="right0A0 right0A0.250.00"/>
    </vehicle>
    <vehicle id="250" type="passenger" depart="115.50">
        <route edges="left0A0 left0A0.250.00 A0bottom0"/>
    </vehicle>
    <vehicle id="251" type="passenger" depart="116.05">
        <route edges="right0A0.250.00 A0top0"/>
    </vehicle>
    <vehicle id="252" type="passenger" depart="116.10">
        <route edges="bottom0A0 bottom0A0.250.00 A0left0"/>
    </vehicle>
    <vehicle id="258" type="passenger" depart="119.60">
        <route edges="top0A0 top0A0.250.00 A0left0"/>
    </vehicle>
    <vehicle id="260" type="passenger" depart="119.90">
        <route edges="top0A0 top0A0.250.00 A0left0"/>
    </vehicle>
    <vehicle id="261" type="passenger" depart="120.60">
        <route edges="top0A0.250.00 A0right0"/>
    </vehicle>
    <vehicle id="262" type="passenger" depart="121.00">
        <route edges="top0A0 top0A0.250.00 A0right0"/>
    </vehicle>
    <vehicle id="265" type="passenger" depart="123.35">
        <route edges="top0A0 top0A0.250.00 A0right0"/>
    </vehicle>
    <vehicle id="267" type="passenger" depart="124.60">
        <route edges="top0A0.250.00 A0bottom0"/>
    </vehicle>
    <vehicle id="269" type="passenger" depart="125.30">
        <route edges="left0A0.250.00"/>
    </vehicle>
    <vehicle id="270" type="passenger" depart="125.40">
        <route edges="left0A0 left0A0.250.00 A0top0"/>
    </vehicle>
    <vehicle id="273" type="passenger" depart="127.20">
        <route edges="left0A0 left0A0.250.00 A0bottom0"/>
    </vehicle>
    <vehicle id="274" type="passenger" depart="127.20">
        <route edges="left0A0 left0A0.250.00 A0bottom0"/>
    </vehicle>
    <vehicle id="278" type="passenger" depart="128.20">
        <route edges="bottom0A0.250.00 A0left0"/>
    </vehicle>
    <vehicle id="279" type="passenger" depart="128.55">
        <route edges="bottom0A0 bottom0A0.250.00 A0right0"/>
    </vehicle>
    <vehicle id="281" type="passenger" depart="130.20">
        <route edges="right0A0.250.00 A0top0"/>
    </vehicle>
    <vehicle id="287" type="passenger" depart="134.10">
        <route edges="left0A0 left0A0.250.00 A0top0"/>
    </vehicle>
    <vehicle id="288" type="passenger" depart="134.20">
        <route edges="right0A0.250.00 A0left0"/>
    </vehicle>
    <vehicle id="290" type="passenger" depart="134.70">
        <route edges="bottom0A0.250.00 A0right0"/>
    </vehicle>
    <vehicle id="293" type="passenger" depart="135.85">
        <route edges="left0A0.250.00 A0top0"/>
    </vehicle>
    <vehicle id="294" type="passenger" depart="137.45">
        <route edges="bottom0A0 bottom0A0.250.00 A0left0"/>
    </vehicle>
    <vehicle id="295" type="passenger" depart="138.70">
        <route edges="bottom0A0 bottom0A0.250.00 A0left0"/>
    </vehicle>
    <vehicle id="296" type="passenger" depart="138.75">
        <route edges="left0A0.250.00 A0bottom0"/>
    </vehicle>
    <vehicle id="301" type="passenger" depart="140.40">
        <route edges="bottom0A0.250.00 A0left0"/>
    </vehicle>
    <vehicle id="304" type="passenger" depart="141.40">
        <route edges="right0A0 right0A0.250.00 A0bottom0"/>
    </vehicle>
    <vehicle id="306" type="passenger" depart="141.75">
        <route edges="left0A0.250.00 A0right0"/>
    </vehicle>
    <vehicle id="307" type="passenger" depart="141.95">
        <route edges="left0A0 left0A0.250.00 A0right0"/>
    </vehicle>
    <vehicle id="308" type="passenger" depart="142.50">
        <route edges="right0A0.250.00 A0bottom0"/>
    </vehicle>
    <vehicle id="309" type="passenger" depart="143.00">
        <route edges="left0A0 left0A0.250.00 A0right0"/>
    </vehicle>
    <vehicle id="312" type="passenger" depart="144.25">
        <route edges="top0A0.250.00 A0left0"/>
    </vehicle>
    <vehicle id="313" type="passenger" depart="144.75">
        <route edges="left0A0.250.00 A0top0"/>
    </vehicle>
    <vehicle id="314" type="passenger" depart="145.10">
        <route edges="bottom0A0.250.00"/>
    </vehicle>
    <vehicle id="319" type="passenger" depart="146.95">
        <route edges="bottom0A0 bottom0A0.250.00"/>
    </vehicle>
    <vehicle id="321" type="passenger" depart="147.30">
        <route edges="bottom0A0.250.00 A0right0"/>
    </vehicle>
    <vehicle id="323" type="passenger" depart="147.85">
        <route edges="bottom0A0 bottom0A0.250.00"/>
    </vehicle>
    <vehicle id="328" type="passenger" depart="148.75">
        <route edges="right0A0 right0A0.250.00 A0bottom0"/>
    </vehicle>
    <vehicle id="329" type="passenger" depart="149.65">
        <route edges="top0A0.250.00 A0right0"/>
    </vehicle>
    <vehicle id="330" type="passenger" depart="149.95">
        <route edges="right0A0.250.00"/>
    </vehicle>
    <vehicle id="334" type="passenger" depart="150.40">
        <route edges="right0A0 right0A0.250.00"/>
    </vehicle>
    <vehicle id="335" type="passenger" depart="151.35">
        <route edges="top0A0.250.00"/>
    </vehicle>
    <vehicle id="337" type="passenger" depart="152.10">
        <route edges="bottom0A0.250.00"/>
    </vehicle>
    <vehicle id="340" type="passenger" depart="154.05">
        <route edges="top0A0.250.00 A0bottom0"/>
    </vehicle>
    <vehicle id="341" type="passenger" depart="154.65">
        <route edges="right0A0.250.00 A0bottom0"/>
    </vehicle>
    <vehicle id="343" type="passenger" depart="155.20">
        <route edges="right0A0.250.00 A0left0"/>
    </vehicle>
    <vehicle id="344" type="passenger" depart="156.15">
        <route edges="top0A0 top0A0.250.00"/>
    </vehicle>
    <vehicle id="345" type="passenger" depart="156.70">
        <route edges="right0A0 right0A0.250.00"/>
    </vehicle>
    <vehicle id="346" type="passenger" depart="157.40">
        <route edges="bottom0A0.250.00 A0top0"/>
    </vehicle>
    <vehicle id="352" type="passenger" depart="159.55">
        <route edges="left0A0 left0A0.250.00 A0bottom0"/>
    </vehicle>
    <vehicle id="354" type="passenger" depart="159.70">
        <route edges="top0A0 top0A0.250.00"/>
    </vehicle>
    <vehicle id="355" type="passenger" depart="160.35">
        <route edges="bottom0A0.250.00 A0left0"/>
    </vehicle>
    <vehicle id="356" type="passenger" depart="160.55">
        <route edges="bottom0A0 bottom0A0.250.00 A0top0"/>
    </vehicle>
    <vehicle id="358" type="passenger" depart="161.45">
        <route edges="left0A0 left0A0.250.00 A0bottom0"/>
    </vehicle>
    <vehicle id="359" type="passenger" depart="161.65">
        <route edges="top0A0.250.00 A0bottom0"/>
    </vehicle>
    <vehicle id="362" type="passenger" depart="162.80">
        <route edges="bottom0A0 bottom0A0.250.00 A0top0"/>
    </vehicle>
    <vehicle id="363" type="passenger" depart="163.55">
        <route edges="right0A0 right0A0.250.00 A0bottom0"/>
    </vehicle>
    <vehicle id="365" type="passenger" depart="164.70">
        <route edges="right0A0 right0A0.250.00 A0bottom0"/>
    </vehicle>
    <vehicle id="366" type="passenger" depart="164.85">
        <route edges="left0A0 left0A0.250.00"/>
    </vehicle>
    <vehicle id="367" type="passenger" depart="164.95">
        <route edges="top0A0.250.00"/>
    </vehicle>
    <vehicle id="372" type="passenger" depart="166.75">
        <route edges="left0A0 left0A0.250.00"/>
    </vehicle>
    <vehicle id="373" type="passenger" depart="167.10">
        <route edges="right0A0.250.00 A0left0"/>
    </vehicle>
    <vehicle id="375" type="passenger" depart="167.20">
        <route edges="top0A0.250.00"/>
    </vehicle>
    <vehicle id="377" type="passenger" depart="168.65">
        <route edges="right0A0 right0A0.250.00 A0top0"/>
    </vehicle>
    <vehicle id="381" type="passenger" depart="170.30">
        <route edges="top0A0 top0A0.250.00"/>
    </vehicle>
    <vehicle id="386" type="passenger" depart="171.90">
        <route edges="top0A0 top0A0.250.00 A0bottom0"/>
    </vehicle>
    <vehicle id="388" type="passenger" depart="172.75">
        <route edges="top0A0.250.00 A0right0"/>
    </vehicle>
    <vehicle id="389" type="passenger" depart="172.95">
        <route edges="left0A0.250.00"/>
    </vehicle>
    <vehicle id="391" type="passenger" depart="173.65">
        <route edges="right0A0 right0A0.250.00 A0bottom0"/>
    </vehicle>
    <vehicle id="392" type="passenger" depart="174.70">
        <route edges="bottom0A0.250.00 A0left0"/>
    </vehicle>
    <vehicle id="393" type="passenger" depart="175.05">
        <route edges="bottom0A0.250.00 A0top0"/>
    </vehicle>
    <vehicle id="396" type="passenger" depart="176.15">
        <route edges="right0A0.250.00 A0top0"/>
    </vehicle>
    <vehicle id="397" type="passenger" depart="176.45">
        <route edges="bottom0A0.250.00 A0top0"/>
    </vehicle>
    <vehicle id="402" type="passenger" depart="178.75">
        <route edges="top0A0 top0A0.250.00 A0left0"/>
    </vehicle>
    <vehicle id="403" type="passenger" depart="178.80">
        <route edges="left0A0 left0A0.250.00"/>
    </vehicle>
    <vehicle id="404" type="passenger" depart="179.50">
        <route edges="left0A0.250.00 A0right0"/>
    </vehicle>
    <vehicle id="407" type="passenger" depart="182.25">
        <route edges="right0A0.250.00"/>
    </vehicle>
    <vehicle id="411" type="passenger" depart="185.10">
        <route edges="bottom0A0.250.00"/>
    </vehicle>
    <vehicle id="412" type="passenger" depart="185.25">
        <route edges="right0A0 right0A0.250.00 A0top0"/>
    </vehicle>
    <vehicle id="413" type="passenger" depart="186.05">
        <route edges="top0A0 top0A0.250.00"/>
    </vehicle>
    <vehicle id="414" type="passenger" depart="186.30">
        <route edges="bottom0A0.250.00 A0right0"/>
    </vehicle>
    <vehicle id="420" type="passenger" depart="188.45">
        <route edges="top0A0 top0A0.250.00 A0right0"/>
    </vehicle>
    <vehicle id="421" type="passenger" depart="188.45">
        <route edges="top0A0.250.00 A0right0"/>
    </vehicle>
    <vehicle id="423" type="passenger" depart="188.85">
        <route edges="right0A0 right0A0.250.00 A0top0"/>
    </vehicle>
    <vehicle id="424" type="passenger" depart="189.50">
        <route edges="right0A0.250.00 A0bottom0"/>
    </vehicle>
    <vehicle id="426" type="passenger" depart="190.45">
        <route edges="bottom0A0.250.00"/>
    </vehicle>
    <vehicle id="430" type="passenger" depart="192.40">
        <route edges="right0A0.250.00 A0left0"/>
    </vehicle>
    <vehicle id="432" type="passenger" depart="193.05">
        <route edges="bottom0A0.250.00"/>
    </vehicle>
    <vehicle id="433" type="passenger" depart="193.10">
        <route edges="bottom0A0 bottom0A0.250.00 A0left0"/>
    </vehicle>
    <vehicle id="435" type="passenger" depart="193.95">
        <route edges="top0A0.250.00 A0right0"/>
    </vehicle>
    <vehicle id="437" type="passenger" depart="194.70">
        <route edges="right0A0.250.00 A0left0"/>
    </vehicle>
    <vehicle id="438" type="passenger" depart="194.85">
        <route edges="right0A0 right0A0.250.00"/>
    </vehicle>
    <vehicle id="440" type="passenger" depart="195.60">
        <route edges="top0A0 top0A0.250.00"/>
    </vehicle>
    <vehicle id="442" type="passenger" depart="195.85">
        <route edges="left0A0.250.00 A0bottom0"/>
    </vehicle>
    <vehicle id="443" type="passenger" depart="196.50">
        <route edges="top0A0.250.00"/>
    </vehicle>
    <vehicle id="444" type="passenger" depart="196.55">
        <route edges="left0A0.250.00"/>
    </vehicle>
    <vehicle id="446" type="passenger" depart="197.60">
        <route edges="bottom0A0 bottom0A0.250.00 A0right0"/>
    </vehicle>
    <vehicle id="448" type="passenger" depart="198.15">
        <route edges="right0A0 right0A0.250.00"/>
    </vehicle>
    <vehicle id="449" type="passenger" depart="198.45">
        <route edges="right0A0 right0A0.250.00"/>
    </vehicle>
    <vehicle id="451" type="passenger" depart="198.70">
        <route edges="left0A0.250.00"/>
    </vehicle>
    <vehicle id="453" type="passenger" depart="199.30">
        <route edges="right0A0 right0A0.250.00 A0top0"/>
    </vehicle>
    <vehicle id="454" type="passenger" depart="199.75">
        <route edges="top0A0.250.00 A0bottom0"/>
    </vehicle>
    <vehicle id="455" type="passenger" depart="199.85">
        <route edges="top0A0.250.00 A0right0"/>
    </vehicle>
    <vehicle id="457" type="passenger" depart="201.40">
        <route edges="right0A0.250.00 A0bottom0"/>
    </vehicle>
    <vehicle id="458" type="passenger" depart="201.45">
        <route edges="left0A0.250.00"/>
    </vehicle>
    <vehicle id="459" type="passenger" depart="201.55">
        <route edges="bottom0A0 bottom0A0.250.00 A0top0"/>
    </vehicle>
    <vehicle id="462" type="passenger" depart="203.05">