<?xml version="1.0" encoding="UTF-8"?>

<!-- generated on 2023-04-26 16:56:58.622690 by randomTrips.py UNKNOWN
<configuration>
    <begin value="0"/>
    <end value="900"/>
    <insertion-rate value="8000.0"/>
    <net-file value="/home/franky3er/Documents/code/HieraGLight/scenarios/grid/1x1-500m/train/60-scenario/network.net.xml"/>
    <random value="True"/>
    <random-depart value="True"/>
    <route-file value="/home/franky3er/Documents/code/HieraGLight/scenarios/grid/1x1-500m/train/60-scenario/routes.rou.xml"/>
    <seed value="60"/>
    <output-trip-file value="/home/franky3er/Documents/code/HieraGLight/scenarios/grid/1x1-500m/train/60-scenario/trips.trips.xml"/>
    <vehicle-class value="passenger"/>
</configuration>
-->

<routes xmlns:xsi="http://www.w3.org/2001/XMLSchema-instance" xsi:noNamespaceSchemaLocation="http://sumo.dlr.de/xsd/routes_file.xsd">
    <vType id="passenger" vClass="passenger"/>
    <trip id="0" depart="0.20" from="right0A0" to="A0right0" type="passenger"/>
    <trip id="1" depart="0.90" from="left0A0.250.00" to="A0top0" type="passenger"/>
    <trip id="2" depart="1.10" from="right0A0" to="top0A0.250.00" type="passenger"/>
    <trip id="3" depart="1.60" from="top0A0" to="left0A0.250.00" type="passenger"/>
    <trip id="4" depart="1.90" from="right0A0.250.00" to="A0top0" type="passenger"/>
    <trip id="5" depart="2.20" from="bottom0A0.250.00" to="top0A0.250.00" type="passenger"/>
    <trip id="6" depart="2.20" from="right0A0" to="A0bottom0" type="passenger"/>
    <trip id="7" depart="2.45" from="right0A0" to="left0A0.250.00" type="passenger"/>
    <trip id="8" depart="3.00" from="left0A0" to="right0A0.250.00" type="passenger"/>
    <trip id="9" depart="3.10" from="right0A0.250.00" to="A0top0" type="passenger"/>
    <trip id="10" depart="3.45" from="right0A0" to="A0bottom0" type="passenger"/>
    <trip id="11" depart="3.50" from="bottom0A0.250.00" to="right0A0.250.00" type="passenger"/>
    <trip id="12" depart="3.70" from="top0A0" to="left0A0.250.00" type="passenger"/>
    <trip id="13" depart="3.85" from="bottom0A0" to="bottom0A0.250.00" type="passenger"/>
    <trip id="14" depart="4.20" from="bottom0A0" to="right0A0.250.00" type="passenger"/>
    <trip id="15" depart="4.40" from="left0A0" to="A0left0" type="passenger"/>
    <trip id="16" depart="4.70" from="right0A0" to="bottom0A0.250.00" type="passenger"/>
    <trip id="17" depart="5.25" from="left0A0.250.00" to="A0bottom0" type="passenger"/>
    <trip id="18" depart="5.70" from="bottom0A0.250.00" to="right0A0.250.00" type="passenger"/>
    <trip id="19" depart="6.00" from="right0A0.250.00" to="bottom0A0.250.00" type="passenger"/>
    <trip id="20" depart="6.45" from="top0A0.250.00" to="top0A0.250.00" type="passenger"/>
    <trip id="21" depart="6.60" from="bottom0A0" to="A0top0" type="passenger"/>
    <trip id="22" depart="7.35" from="right0A0" to="left0A0.250.00" type="passenger"/>
    <trip id="23" depart="7.65" from="bottom0A0" to="right0A0.250.00" type="passenger"/>
    <trip id="24" depart="7.75" from="bottom0A0.250.00" to="A0left0" type="passenger"/>
    <trip id="25" depart="8.15" from="right0A0" to="A0bottom0" type="passenger"/>
    <trip id="26" depart="9.15" from="right0A0" to="right0A0.250.00" type="passenger"/>
    <trip id="27" depart="9.90" from="top0A0" to="top0A0.250.00" type="passenger"/>
    <trip id="28" depart="10.10" from="left0A0.250.00" to="A0right0" type="passenger"/>
    <trip id="29" depart="10.40" from="left0A0.250.00" to="bottom0A0.250.00" type="passenger"/>
    <trip id="30" depart="10.55" from="top0A0" to="A0bottom0" type="passenger"/>
    <trip id="31" depart="11.00" from="right0A0.250.00" to="top0A0.250.00" type="passenger"/>
    <trip id="32" depart="11.25" from="bottom0A0" to="bottom0A0.250.00" type="passenger"/>
    <trip id="33" depart="11.50" from="right0A0.250.00" to="A0bottom0" type="passenger"/>
    <trip id="34" depart="11.50" from="right0A0.250.00" to="top0A0.250.00" type="passenger"/>
    <trip id="35" depart="11.65" from="bottom0A0" to="right0A0.250.00" type="passenger"/>
    <trip id="36" depart="11.80" from="right0A0" to="A0left0" type="passenger"/>
    <trip id="37" depart="12.50" from="bottom0A0.250.00" to="top0A0.250.00" type="passenger"/>
    <trip id="38" depart="12.60" from="right0A0" to="right0A0.250.00" type="passenger"/>
    <trip id="39" depart="12.65" from="left0A0.250.00" to="right0A0.250.00" type="passenger"/>
    <trip id="40" depart="12.85" from="right0A0.250.00" to="A0top0" type="passenger"/>
    <trip id="41" depart="12.90" from="right0A0" to="A0right0" type="passenger"/>
    <trip id="42" depart="13.05" from="right0A0" to="A0left0" type="passenger"/>
    <trip id="43" depart="13.65" from="left0A0.250.00" to="A0right0" type="passenger"/>
    <trip id="44" depart="13.95" from="bottom0A0" to="top0A0.250.00" type="passenger"/>
    <trip id="45" depart="14.95" from="right0A0" to="bottom0A0.250.00" type="passenger"/>
    <trip id="46" depart="15.85" from="right0A0" to="bottom0A0.250.00" type="passenger"/>
    <trip id="47" depart="16.20" from="right0A0.250.00" to="bottom0A0.250.00" type="passenger"/>
    <trip id="48" depart="16.55" from="top0A0" to="A0bottom0" type="passenger"/>
    <trip id="49" depart="17.00" from="bottom0A0" to="A0top0" type="passenger"/>
    <trip id="50" depart="17.05" from="top0A0" to="A0right0" type="passenger"/>
    <trip id="51" depart="19.30" from="bottom0A0" to="left0A0.250.00" type="passenger"/>
    <trip id="52" depart="19.85" from="top0A0.250.00" to="A0right0" type="passenger"/>
    <trip id="53" depart="20.05" from="top0A0" to="A0bottom0" type="passenger"/>
    <trip id="54" depart="20.50" from="top0A0.250.00" to="bottom0A0.250.00" type="passenger"/>
    <trip id="55" depart="20.95" from="right0A0" to="bottom0A0.250.00" type="passenger"/>
    <trip id="56" depart="21.75" from="left0A0.250.00" to="A0top0" type="passenger"/>
    <trip id="57" depart="21.90" from="top0A0" to="right0A0.250.00" type="passenger"/>
    <trip id="58" depart="22.15" from="bottom0A0.250.00" to="A0top0" type="passenger"/>
    <trip id="59" depart="22.95" from="bottom0A0.250.00" to="right0A0.250.00" type="passenger"/>
    <trip id="60" depart="23.10" from="top0A0" to="top0A0.250.00" type="passenger"/>
    <trip id="61" depart="24.60" from="left0A0" to="A0left0" type="passenger"/>
    <trip id="62" depart="24.70" from="top0A0.250.00" to="right0A0.250.00" type="passenger"/>
    <trip id="63" depart="24.70" from="bottom0A0" to="bottom0A0.250.00" type="passenger"/>
    <trip id="64" depart="24.95" from="right0A0" to="A0left0" type="passenger"/>
    <trip id="65" depart="25.50" from="left0A0.250.00" to="A0top0" type="passenger"/>
    <trip id="66" depart="25.55" from="left0A0" to="A0left0" type="passenger"/>
    <trip id="67" depart="26.35" from="bottom0A0" to="top0A0.250.00" type="passenger"/>
    <trip id="68" depart="26.45" from="right0A0" to="A0right0" type="passenger"/>
    <trip id="69" depart="26.45" from="top0A0" to="bottom0A0.250.00" type="passenger"/>
    <trip id="70" depart="26.85" from="left0A0" to="right0A0.250.00" type="passenger"/>
    <trip id="71" depart="26.90" from="bottom0A0.250.00" to="A0right0" type="passenger"/>
    <trip id="72" depart="27.40" from="bottom0A0" to="bottom0A0.250.00" type="passenger"/>
    <trip id="73" depart="27.80" from="bottom0A0.250.00" to="A0right0" type="passenger"/>
    <trip id="74" depart="27.90" from="left0A0" to="left0A0.250.00" type="passenger"/>
    <trip id="75" depart="28.70" from="right0A0" to="A0bottom0" type="passenger"/>
    <trip id="76" depart="28.95" from="right0A0.250.00" to="right0A0.250.00" type="passenger"/>
    <trip id="77" depart="29.10" from="right0A0" to="A0bottom0" type="passenger"/>
    <trip id="78" depart="29.30" from="bottom0A0.250.00" to="A0left0" type="passenger"/>
    <trip id="79" depart="29.40" from="right0A0.250.00" to="right0A0.250.00" type="passenger"/>
    <trip id="80" depart="29.70" from="left0A0.250.00" to="A0bottom0" type="passenger"/>
    <trip id="81" depart="29.80" from="right0A0" to="top0A0.250.00" type="passenger"/>
    <trip id="82" depart="30.25" from="top0A0" to="A0bottom0" type="passenger"/>
    <trip id="83" depart="30.65" from="bottom0A0" to="top0A0.250.00" type="passenger"/>
    <trip id="84" depart="31.00" from="right0A0.250.00" to="bottom0A0.250.00" type="passenger"/>
    <trip id="85" depart="31.00" from="bottom0A0.250.00" to="bottom0A0.250.00" type="passenger"/>
    <trip id="86" depart="31.20" from="right0A0" to="A0right0" type="passenger"/>
    <trip id="87" depart="31.60" from="left0A0" to="A0left0" type="passenger"/>
    <trip id="88" depart="32.15" from="bottom0A0.250.00" to="A0right0" type="passenger"/>
    <trip id="89" depart="32.50" from="bottom0A0" to="A0top0" type="passenger"/>
    <trip id="90" depart="33.35" from="right0A0.250.00" to="bottom0A0.250.00" type="passenger"/>
    <trip id="91" depart="34.45" from="bottom0A0" to="A0right0" type="passenger"/>
    <trip id="92" depart="35.05" from="left0A0" to="right0A0.250.00" type="passenger"/>
    <trip id="93" depart="35.15" from="bottom0A0.250.00" to="A0top0" type="passenger"/>
    <trip id="94" depart="35.80" from="right0A0" to="bottom0A0.250.00" type="passenger"/>
    <trip id="95" depart="36.25" from="right0A0.250.00" to="A0bottom0" type="passenger"/>
    <trip id="96" depart="36.75" from="bottom0A0.250.00" to="A0right0" type="passenger"/>
    <trip id="97" depart="37.10" from="bottom0A0.250.00" to="right0A0.250.00" type="passenger"/>
    <trip id="98" depart="37.10" from="top0A0.250.00" to="A0right0" type="passenger"/>
    <trip id="99" depart="37.30" from="top0A0" to="A0top0" type="passenger"/>
    <trip id="100" depart="38.45" from="left0A0" to="A0right0" type="passenger"/>
    <trip id="101" depart="38.50" from="bottom0A0.250.00" to="left0A0.250.00" type="passenger"/>
    <trip id="102" depart="38.95" from="top0A0" to="bottom0A0.250.00" type="passenger"/>
    <trip id="103" depart="39.40" from="left0A0" to="A0top0" type="passenger"/>
    <trip id="104" depart="40.55" from="left0A0.250.00" to="top0A0.250.00" type="passenger"/>
    <trip id="105" depart="41.10" from="right0A0" to="left0A0.250.00" type="passenger"/>
    <trip id="106" depart="41.60" from="right0A0.250.00" to="A0bottom0" type="passenger"/>
    <trip id="107" depart="42.25" from="left0A0" to="bottom0A0.250.00" type="passenger"/>
    <trip id="108" depart="42.35" from="bottom0A0" to="bottom0A0.250.00" type="passenger"/>
    <trip id="109" depart="42.90" from="right0A0.250.00" to="A0bottom0" type="passenger"/>
    <trip id="110" depart="43.05" from="bottom0A0.250.00" to="A0right0" type="passenger"/>
    <trip id="111" depart="43.40" from="top0A0.250.00" to="A0bottom0" type="passenger"/>
    <trip id="112" depart="44.15" from="top0A0" to="bottom0A0.250.00" type="passenger"/>
    <trip id="113" depart="44.15" from="bottom0A0" to="top0A0.250.00" type="passenger"/>
    <trip id="114" depart="44.30" from="top0A0" to="A0left0" type="passenger"/>
    <trip id="115" depart="44.30" from="left0A0" to="right0A0.250.00" type="passenger"/>
    <trip id="116" depart="44.35" from="top0A0" to="A0bottom0" type="passenger"/>
    <trip id="117" depart="44.35" from="bottom0A0" to="A0top0" type="passenger"/>
    <trip id="118" depart="44.80" from="bottom0A0" to="right0A0.250.00" type="passenger"/>
    <trip id="119" depart="44.90" from="top0A0.250.00" to="A0left0" type="passenger"/>
    <trip id="120" depart="44.95" from="right0A0" to="A0top0" type="passenger"/>
    <trip id="121" depart="45.45" from="top0A0" to="right0A0.250.00" type="passenger"/>
    <trip id="122" depart="45.55" from="bottom0A0.250.00" to="A0right0" type="passenger"/>
    <trip id="123" depart="46.00" from="right0A0.250.00" to="A0right0" type="passenger"/>
    <trip id="124" depart="46.70" from="left0A0" to="right0A0.250.00" type="passenger"/>
    <trip id="125" depart="47.20" from="right0A0" to="right0A0.250.00" type="passenger"/>
    <trip id="126" depart="47.50" from="top0A0" to="left0A0.250.00" type="passenger"/>
    <trip id="127" depart="48.05" from="left0A0" to="A0right0" type="passenger"/>
    <trip id="128" depart="48.15" from="top0A0" to="top0A0.250.00" type="passenger"/>
    <trip id="129" depart="48.30" from="bottom0A0" to="A0top0" type="passenger"/>
    <trip id="130" depart="49.40" from="bottom0A0.250.00" to="top0A0.250.00" type="passenger"/>
    <trip id="131" depart="50.05" from="top0A0" to="right0A0.250.00" type="passenger"/>
    <trip id="132" depart="50.45" from="left0A0" to="left0A0.250.00" type="passenger"/>
    <trip id="133" depart="50.80" from="bottom0A0.250.00" to="A0bottom0" type="passenger"/>
    <trip id="134" depart="51.40" from="left0A0.250.00" to="left0A0.250.00" type="passenger"/>
    <trip id="135" depart="51.50" from="left0A0" to="A0bottom0" type="passenger"/>
    <trip id="136" depart="51.60" from="left0A0" to="left0A0.250.00" type="passenger"/>
    <trip id="137" depart="51.70" from="right0A0" to="A0bottom0" type="passenger"/>
    <trip id="138" depart="52.00" from="top0A0.250.00" to="right0A0.250.00" type="passenger"/>
    <trip id="139" depart="52.10" from="bottom0A0" to="bottom0A0.250.00" type="passenger"/>
    <trip id="140" depart="52.15" from="top0A0.250.00" to="right0A0.250.00" type="passenger"/>
    <trip id="141" depart="53.00" from="left0A0" to="right0A0.250.00" type="passenger"/>
    <trip id="142" depart="53.70" from="bottom0A0" to="A0top0" type="passenger"/>
    <trip id="143" depart="54.00" from="left0A0.250.00" to="A0left0" type="passenger"/>
    <trip id="144" depart="54.40" from="left0A0.250.00" to="right0A0.250.00" type="passenger"/>
    <trip id="145" depart="55.50" from="bottom0A0" to="bottom0A0.250.00" type="passenger"/>
    <trip id="146" depart="55.95" from="left0A0" to="top0A0.250.00" type="passenger"/>
    <trip id="147" depart="55.95" from="top0A0.250.00" to="A0top0" type="passenger"/>
    <trip id="148" depart="56.30" from="left0A0.250.00" to="A0bottom0" type="passenger"/>
    <trip id="149" depart="56.30" from="top0A0.250.00" to="A0left0" type="passenger"/>
    <trip id="150" depart="56.30" from="bottom0A0.250.00" to="A0top0" type="passenger"/>
    <trip id="151" depart="56.35" from="right0A0" to="bottom0A0.250.00" type="passenger"/>
    <trip id="152" depart="58.00" from="right0A0.250.00" to="A0bottom0" type="passenger"/>
    <trip id="153" depart="58.20" from="bottom0A0.250.00" to="right0A0.250.00" type="passenger"/>
    <trip id="154" depart="59.30" from="top0A0" to="right0A0.250.00" type="passenger"/>
    <trip id="155" depart="59.55" from="right0A0.250.00" to="A0right0" type="passenger"/>
    <trip id="156" depart="60.25" from="right0A0.250.00" to="right0A0.250.00" type="passenger"/>
    <trip id="157" depart="60.55" from="top0A0" to="top0A0.250.00" type="passenger"/>
    <trip id="158" depart="62.15" from="left0A0" to="A0left0" type="passenger"/>
    <trip id="159" depart="62.45" from="right0A0" to="A0right0" type="passenger"/>
    <trip id="160" depart="63.30" from="right0A0.250.00" to="A0right0" type="passenger"/>
    <trip id="161" depart="63.70" from="right0A0.250.00" to="A0bottom0" type="passenger"/>
    <trip id="162" depart="64.00" from="right0A0.250.00" to="left0A0.250.00" type="passenger"/>
    <trip id="163" depart="64.95" from="right0A0.250.00" to="A0top0" type="passenger"/>
    <trip id="164" depart="65.00" from="top0A0" to="A0right0" type="passenger"/>
    <trip id="165" depart="65.15" from="top0A0.250.00" to="A0bottom0" type="passenger"/>
    <trip id="166" depart="65.75" from="left0A0.250.00" to="A0top0" type="passenger"/>
    <trip id="167" depart="65.85" from="left0A0" to="right0A0.250.00" type="passenger"/>
    <trip id="168" depart="66.35" from="right0A0.250.00" to="top0A0.250.00" type="passenger"/>
    <trip id="169" depart="66.35" from="right0A0.250.00" to="bottom0A0.250.00" type="passenger"/>
    <trip id="170" depart="66.55" from="top0A0.250.00" to="right0A0.250.00" type="passenger"/>
    <trip id="171" depart="67.05" from="bottom0A0.250.00" to="right0A0.250.00" type="passenger"/>
    <trip id="172" depart="67.20" from="top0A0.250.00" to="right0A0.250.00" type="passenger"/>
    <trip id="173" depart="67.85" from="left0A0.250.00" to="A0bottom0" type="passenger"/>
    <trip id="174" depart="68.00" from="bottom0A0" to="A0bottom0" type="passenger"/>
    <trip id="175" depart="68.05" from="left0A0" to="left0A0.250.00" type="passenger"/>
    <trip id="176" depart="68.10" from="right0A0.250.00" to="right0A0.250.00" type="passenger"/>
    <trip id="177" depart="68.10" from="top0A0.250.00" to="top0A0.250.00" type="passenger"/>
    <trip id="178" depart="68.15" from="left0A0" to="left0A0.250.00" type="passenger"/>
    <trip id="179" depart="68.30" from="bottom0A0" to="A0right0" type="passenger"/>
    <trip id="180" depart="68.40" from="top0A0.250.00" to="bottom0A0.250.00" type="passenger"/>
    <trip id="181" depart="68.85" from="top0A0.250.00" to="A0right0" type="passenger"/>
    <trip id="182" depart="70.10" from="top0A0.250.00" to="A0right0" type="passenger"/>
    <trip id="183" depart="70.30" from="top0A0.250.00" to="top0A0.250.00" type="passenger"/>
    <trip id="184" depart="72.05" from="left0A0.250.00" to="top0A0.250.00" type="passenger"/>
    <trip id="185" depart="72.80" from="right0A0.250.00" to="top0A0.250.00" type="passenger"/>
    <trip id="186" depart="74.10" from="right0A0" to="A0top0" type="passenger"/>
    <trip id="187" depart="74.35" from="top0A0" to="top0A0.250.00" type="passenger"/>
    <trip id="188" depart="74.75" from="top0A0" to="left0A0.250.00" type="passenger"/>
    <trip id="189" depart="74.85" from="bottom0A0.250.00" to="A0bottom0" type="passenger"/>
    <trip id="190" depart="74.90" from="left0A0" to="right0A0.250.00" type="passenger"/>
    <trip id="191" depart="75.25" from="right0A0" to="left0A0.250.00" type="passenger"/>
    <trip id="192" depart="75.50" from="top0A0" to="A0top0" type="passenger"/>
    <trip id="193" depart="77.45" from="left0A0" to="A0left0" type="passenger"/>
    <trip id="194" depart="78.15" from="bottom0A0" to="left0A0.250.00" type="passenger"/>
    <trip id="195" depart="78.25" from="bottom0A0.250.00" to="right0A0.250.00" type="passenger"/>
    <trip id="196" depart="78.40" from="left0A0.250.00" to="A0top0" type="passenger"/>
    <trip id="197" depart="78.55" from="right0A0.250.00" to="top0A0.250.00" type="passenger"/>
    <trip id="198" depart="79.80" from="left0A0" to="A0top0" type="passenger"/>
    <trip id="199" depart="79.85" from="right0A0" to="left0A0.250.00" type="passenger"/>
    <trip id="200" depart="80.10" from="right0A0.250.00" to="top0A0.250.00" type="passenger"/>
    <trip id="201" depart="80.85" from="top0A0" to="A0right0" type="passenger"/>
    <trip id="202" depart="80.95" from="top0A0.250.00" to="A0bottom0" type="passenger"/>
    <trip id="203" depart="81.15" from="bottom0A0" to="top0A0.250.00" type="passenger"/>
    <trip id="204" depart="81.70" from="left0A0" to="A0top0" type="passenger"/>
    <trip id="205" depart="81.80" from="bottom0A0.250.00" to="A0bottom0" type="passenger"/>
    <trip id="206" depart="82.00" from="bottom0A0" to="top0A0.250.00" type="passenger"/>
    <trip id="207" depart="82.20" from="left0A0" to="right0A0.250.00" type="passenger"/>
    <trip id="208" depart="82.40" from="top0A0" to="bottom0A0.250.00" type="passenger"/>
    <trip id="209" depart="82.45" from="left0A0" to="A0bottom0" type="passenger"/>
    <trip id="210" depart="83.25" from="right0A0.250.00" to="left0A0.250.00" type="passenger"/>
    <trip id="211" depart="83.25" from="left0A0.250.00" to="left0A0.250.00" type="passenger"/>
    <trip id="212" depart="83.90" from="right0A0" to="bottom0A0.250.00" type="passenger"/>
    <trip id="213" depart="84.20" from="bottom0A0.250.00" to="bottom0A0.250.00" type="passenger"/>
    <trip id="214" depart="84.20" from="top0A0.250.00" to="right0A0.250.00" type="passenger"/>
    <trip id="215" depart="84.65" from="left0A0" to="A0bottom0" type="passenger"/>
    <trip id="216" depart="85.25" from="bottom0A0" to="top0A0.250.00" type="passenger"/>
    <trip id="217" depart="85.70" from="right0A0" to="A0left0" type="passenger"/>
    <trip id="218" depart="86.00" from="right0A0.250.00" to="A0left0" type="passenger"/>
    <trip id="219" depart="86.00" from="top0A0" to="left0A0.250.00" type="passenger"/>
    <trip id="220" depart="86.15" from="top0A0" to="A0left0" type="passenger"/>
    <trip id="221" depart="86.20" from="right0A0.250.00" to="left0A0.250.00" type="passenger"/>
    <trip id="222" depart="86.50" from="left0A0.250.00" to="A0left0" type="passenger"/>
    <trip id="223" depart="86.75" from="bottom0A0.250.00" to="A0left0" type="passenger"/>
    <trip id="224" depart="87.00" from="top0A0.250.00" to="A0right0" type="passenger"/>
    <trip id="225" depart="87.30" from="left0A0" to="right0A0.250.00" type="passenger"/>
    <trip id="226" depart="88.90" from="left0A0.250.00" to="A0right0" type="passenger"/>
    <trip id="227" depart="88.90" from="bottom0A0.250.00" to="A0left0" type="passenger"/>
    <trip id="228" depart="89.95" from="top0A0.250.00" to="A0right0" type="passenger"/>
    <trip id="229" depart="90.80" from="top0A0.250.00" to="A0right0" type="passenger"/>
    <trip id="230" depart="90.80" from="left0A0.250.00" to="A0top0" type="passenger"/>
    <trip id="231" depart="90.85" from="top0A0" to="A0left0" type="passenger"/>
    <trip id="232" depart="91.75" from="top0A0" to="top0A0.250.00" type="passenger"/>
    <trip id="233" depart="92.40" from="top0A0" to="A0right0" type="passenger"/>
    <trip id="234" depart="92.60" from="left0A0.250.00" to="top0A0.250.00" type="passenger"/>
    <trip id="235" depart="93.60" from="right0A0.250.00" to="A0top0" type="passenger"/>
    <trip id="236" depart="94.40" from="right0A0.250.00" to="top0A0.250.00" type="passenger"/>
    <trip id="237" depart="96.40" from="right0A0.250.00" to="top0A0.250.00" type="passenger"/>
    <trip id="238" depart="96.65" from="bottom0A0" to="left0A0.250.00" type="passenger"/>
    <trip id="239" depart="96.65" from="top0A0" to="A0top0" type="passenger"/>
    <trip id="240" depart="96.90" from="right0A0.250.00" to="A0right0" type="passenger"/>
    <trip id="241" depart="96.90" from="left0A0" to="bottom0A0.250.00" type="passenger"/>
    <trip id="242" depart="97.10" from="bottom0A0.250.00" to="A0top0" type="passenger"/>
    <trip id="243" depart="97.15" from="top0A0.250.00" to="top0A0.250.00" type="passenger"/>
    <trip id="244" depart="97.35" from="left0A0.250.00" to="bottom0A0.250.00" type="passenger"/>
    <trip id="245" depart="97.75" from="bottom0A0.250.00" to="right0A0.250.00" type="passenger"/>
    <trip id="246" depart="98.30" from="top0A0.250.00" to="bottom0A0.250.00" type="passenger"/>
    <trip id="247" depart="99.70" from="bottom0A0.250.00" to="bottom0A0.250.00" type="passenger"/>
    <trip id="248" depart="100.25" from="top0A0.250.00" to="A0left0" type="passenger"/>
    <trip id="249" depart="100.70" from="right0A0.250.00" to="A0left0" type="passenger"/>
    <trip id="250" depart="101.10" from="top0A0" to="top0A0.250.00" type="passenger"/>
    <trip id="251" depart="101.75" from="top0A0.250.00" to="A0left0" type="passenger"/>
    <trip id="252" depart="102.60" from="top0A0" to="A0top0" type="passenger"/>
    <trip id="253" depart="103.40" from="bottom0A0" to="top0A0.250.00" type="passenger"/>
    <trip id="254" depart="103.65" from="right0A0" to="A0right0" type="passenger"/>
    <trip id="255" depart="104.10" from="right0A0.250.00" to="A0left0" type="passenger"/>
    <trip id="256" depart="104.35" from="left0A0" to="top0A0.250.00" type="passenger"/>
    <trip id="257" depart="104.50" from="left0A0" to="A0left0" type="passenger"/>
    <trip id="258" depart="104.60" from="bottom0A0.250.00" to="A0top0" type="passenger"/>
    <trip id="259" depart="104.85" from="left0A0.250.00" to="A0right0" type="passenger"/>
    <trip id="260" depart="105.75" from="bottom0A0.250.00" to="A0bottom0" type="passenger"/>
    <trip id="261" depart="106.15" from="bottom0A0.250.00" to="top0A0.250.00" type="passenger"/>
    <trip id="262" depart="106.25" from="left0A0.250.00" to="A0left0" type="passenger"/>
    <trip id="263" depart="106.60" from="bottom0A0.250.00" to="top0A0.250.00" type="passenger"/>
    <trip id="264" depart="107.50" from="left0A0.250.00" to="left0A0.250.00" type="passenger"/>
    <trip id="265" depart="107.75" from="bottom0A0.250.00" to="bottom0A0.250.00" type="passenger"/>
    <trip id="266" depart="107.85" from="right0A0.250.00" to="A0top0" type="passenger"/>
    <trip id="267" depart="108.00" from="top0A0" to="A0bottom0" type="passenger"/>
    <trip id="268" depart="111.05" from="right0A0" to="bottom0A0.250.00" type="passenger"/>
    <trip id="269" depart="111.45" from="left0A0.250.00" to="left0A0.250.00" type="passenger"/>
    <trip id="270" depart="111.50" from="bottom0A0.250.00" to="A0top0" type="passenger"/>
    <trip id="271" depart="111.60" from="top0A0" to="top0A0.250.00" type="passenger"/>
    <trip id="272" depart="112.35" from="top0A0" to="right0A0.250.00" type="passenger"/>
    <trip id="273" depart="113.20" from="top0A0.250.00" to="A0right0" type="passenger"/>
    <trip id="274" depart="114.10" from="right0A0.250.00" to="A0right0" type="passenger"/>
    <trip id="275" depart="114.70" from="left0A0" to="right0A0.250.00" type="passenger"/>
    <trip id="276" depart="115.00" from="bottom0A0" to="right0A0.250.00" type="passenger"/>
    <trip id="277" depart="115.25" from="right0A0.250.00" to="A0bottom0" type="passenger"/>
    <trip id="278" depart="115.60" from="left0A0.250.00" to="A0right0" type="passenger"/>
    <trip id="279" depart="115.90" from="bottom0A0.250.00" to="bottom0A0.250.00" type="passenger"/>
    <trip id="280" depart="117.10" from="top0A0" to="A0right0" type="passenger"/>
    <trip id="281" depart="117.10" from="bottom0A0" to="A0bottom0" type="passenger"/>
    <trip id="282" depart="117.35" from="top0A0.250.00" to="A0left0" type="passenger"/>
    <trip id="283" depart="117.55" from="right0A0" to="A0left0" type="passenger"/>
    <trip id="284" depart="118.40" from="top0A0" to="top0A0.250.00" type="passenger"/>
    <trip id="285" depart="118.45" from="left0A0.250.00" to="A0right0" type="passenger"/>
    <trip id="286" depart="118.55" from="right0A0.250.00" to="A0right0" type="passenger"/>
    <trip id="287" depart="118.80" from="left0A0.250.00" to="right0A0.250.00" type="passenger"/>
    <trip id="288" depart="119.20" from="right0A0" to="A0left0" type="passenger"/>
    <trip id="289" depart="119.55" from="top0A0" to="top0A0.250.00" type="passenger"/>
    <trip id="290" depart="120.65" from="top0A0" to="bottom0A0.250.00" type="passenger"/>
    <trip id="291" depart="120.70" from="right0A0.250.00" to="A0top0" type="passenger"/>
    <trip id="292" depart="121.65" from="left0A0" to="top0A0.250.00" type="passenger"/>
    <trip id="293" depart="122.00" from="left0A0.250.00" to="A0left0" type="passenger"/>
    <trip id="294" depart="122.10" from="top0A0" to="A0top0" type="passenger"/>
    <trip id="295" depart="122.20" from="left0A0.250.00" to="bottom0A0.250.00" type="passenger"/>
    <trip id="296" depart="122.20" from="top0A0" to="bottom0A0.250.00" type="passenger"/>
    <trip id="297" depart="123.05" from="left0A0" to="A0left0" type="passenger"/>
    <trip id="298" depart="123.25" from="top0A0.250.00" to="left0A0.250.00" type="passenger"/>
    <trip id="299" depart="123.30" from="top0A0.250.00" to="A0right0" type="passenger"/>
    <trip id="300" depart="123.65" from="top0A0.250.00" to="left0A0.250.00" type="passenger"/>
    <trip id="301" depart="124.05" from="left0A0" to="A0left0" type="passenger"/>
    <trip id="302" depart="124.30" from="top0A0" to="left0A0.250.00" type="passenger"/>
    <trip id="303" depart="124.50" from="top0A0.250.00" to="A0left0" type="passenger"/>
    <trip id="304" depart="124.70" from="top0A0.250.00" to="bottom0A0.250.00" type="passenger"/>
    <trip id="305" depart="125.00" from="left0A0.250.00" to="top0A0.250.00" type="passenger"/>
    <trip id="306" depart="125.30" from="right0A0" to="A0bottom0" type="passenger"/>
    <trip id="307" depart="127.15" from="bottom0A0" to="right0A0.250.00" type="passenger"/>
    <trip id="308" depart="127.55" from="bottom0A0.250.00" to="right0A0.250.00" type="passenger"/>
    <trip id="309" depart="128.10" from="top0A0" to="A0bottom0" type="passenger"/>
    <trip id="310" depart="128.45" from="top0A0" to="left0A0.250.00" type="passenger"/>
    <trip id="311" depart="129.45" from="right0A0" to="A0left0" type="passenger"/>
    <trip id="312" depart="129.75" from="right0A0" to="bottom0A0.250.00" type="passenger"/>
    <trip id="313" depart="129.80" from="bottom0A0.250.00" to="A0left0" type="passenger"/>
    <trip id="314" depart="130.05" from="top0A0" to="right0A0.250.00" type="passenger"/>
    <trip id="315" depart="131.05" from="top0A0" to="A0left0" type="passenger"/>
    <trip id="316" depart="131.85" from="top0A0.250.00" to="A0right0" type="passenger"/>
    <trip id="317" depart="132.00" from="right0A0" to="top0A0.250.00" type="passenger"/>
    <trip id="318" depart="132.15" from="top0A0.250.00" to="bottom0A0.250.00" type="passenger"/>
    <trip id="319" depart="132.30" from="right0A0.250.00" to="bottom0A0.250.00" type="passenger"/>
    <trip id="320" depart="132.40" from="top0A0.250.00" to="left0A0.250.00" type="passenger"/>
    <trip id="321" depart="132.55" from="left0A0" to="A0top0" type="passenger"/>
    <trip id="322" depart="133.55" from="left0A0" to="right0A0.250.00" type="passenger"/>
    <trip id="323" depart="134.35" from="bottom0A0" to="A0left0" type="passenger"/>
    <trip id="324" depart="134.95" from="bottom0A0.250.00" to="A0left0" type="passenger"/>
    <trip id="325" depart="135.65" from="top0A0.250.00" to="top0A0.250.00" type="passenger"/>
    <trip id="326" depart="137.35" from="left0A0" to="A0bottom0" type="passenger"/>