<?xml version="1.0" encoding="UTF-8"?>

<!-- generated on 2023-04-26 16:56:53.427627 by randomTrips.py UNKNOWN
<configuration>
    <begin value="0"/>
    <end value="900"/>
    <insertion-rate value="8000.0"/>
    <net-file value="/home/franky3er/Documents/code/HieraGLight/scenarios/grid/1x1-500m/train/47-scenario/network.net.xml"/>
    <random value="True"/>
    <random-depart value="True"/>
    <route-file value="/home/franky3er/Documents/code/HieraGLight/scenarios/grid/1x1-500m/train/47-scenario/routes.rou.xml"/>
    <seed value="47"/>
    <output-trip-file value="/home/franky3er/Documents/code/HieraGLight/scenarios/grid/1x1-500m/train/47-scenario/trips.trips.xml"/>
    <vehicle-class value="passenger"/>
</configuration>
-->

<!-- generated on 2023-04-26 16:56:53 by Eclipse SUMO duarouter Version 1.16.0
<configuration xmlns:xsi="http://www.w3.org/2001/XMLSchema-instance" xsi:noNamespaceSchemaLocation="http://sumo.dlr.de/xsd/duarouterConfiguration.xsd">

    <input>
        <net-file value="/home/franky3er/Documents/code/HieraGLight/scenarios/grid/1x1-500m/train/47-scenario/network.net.xml"/>
        <route-files value="/home/franky3er/Documents/code/HieraGLight/scenarios/grid/1x1-500m/train/47-scenario/trips.trips.xml"/>
    </input>

    <output>
        <output-file value="/home/franky3er/Documents/code/HieraGLight/scenarios/grid/1x1-500m/train/47-scenario/routes.rou.xml"/>
        <alternatives-output value="NUL"/>
    </output>

    <time>
        <begin value="0"/>
        <end value="900"/>
    </time>

    <report>
        <no-warnings value="true"/>
        <ignore-errors value="true"/>
        <no-step-log value="true"/>
    </report>

</configuration>
-->

<routes xmlns:xsi="http://www.w3.org/2001/XMLSchema-instance" xsi:noNamespaceSchemaLocation="http://sumo.dlr.de/xsd/routes_file.xsd">
    <vType id="passenger" vClass="passenger"/>
    <vehicle id="0" type="passenger" depart="0.05">
        <route edges="bottom0A0 bottom0A0.250.00"/>
    </vehicle>
    <vehicle id="6" type="passenger" depart="1.85">
        <route edges="top0A0.250.00"/>
    </vehicle>
    <vehicle id="9" type="passenger" depart="2.05">
        <route edges="right0A0 right0A0.250.00 A0left0"/>
    </vehicle>
    <vehicle id="10" type="passenger" depart="3.00">
        <route edges="left0A0.250.00 A0right0"/>
    </vehicle>
    <vehicle id="13" type="passenger" depart="3.60">
        <route edges="top0A0.250.00"/>
    </vehicle>
    <vehicle id="15" type="passenger" depart="3.95">
        <route edges="right0A0.250.00 A0left0"/>
    </vehicle>
    <vehicle id="19" type="passenger" depart="4.70">
        <route edges="left0A0 left0A0.250.00 A0top0"/>
    </vehicle>
    <vehicle id="20" type="passenger" depart="4.90">
        <route edges="left0A0.250.00"/>
    </vehicle>
    <vehicle id="21" type="passenger" depart="5.60">
        <route edges="bottom0A0 bottom0A0.250.00 A0left0"/>
    </vehicle>
    <vehicle id="26" type="passenger" depart="10.15">
        <route edges="top0A0.250.00"/>
    </vehicle>
    <vehicle id="28" type="passenger" depart="11.15">
        <route edges="top0A0 top0A0.250.00 A0left0"/>
    </vehicle>
    <vehicle id="32" type="passenger" depart="12.45">
        <route edges="left0A0 left0A0.250.00 A0top0"/>
    </vehicle>
    <vehicle id="33" type="passenger" depart="12.60">
        <route edges="left0A0.250.00 A0bottom0"/>
    </vehicle>
    <vehicle id="34" type="passenger" depart="12.70">
        <route edges="right0A0 right0A0.250.00 A0bottom0"/>
    </vehicle>
    <vehicle id="37" type="passenger" depart="14.10">
        <route edges="top0A0.250.00 A0right0"/>
    </vehicle>
    <vehicle id="41" type="passenger" depart="16.45">
        <route edges="bottom0A0 bottom0A0.250.00 A0left0"/>
    </vehicle>
    <vehicle id="44" type="passenger" depart="18.15">
        <route edges="right0A0.250.00 A0left0"/>
    </vehicle>
    <vehicle id="50" type="passenger" depart="21.65">
        <route edges="left0A0.250.00"/>
    </vehicle>
    <vehicle id="52" type="passenger" depart="23.30">
        <route edges="left0A0 left0A0.250.00 A0right0"/>
    </vehicle>
    <vehicle id="53" type="passenger" depart="23.50">
        <route edges="bottom0A0.250.00"/>
    </vehicle>
    <vehicle id="54" type="passenger" depart="23.80">
        <route edges="bottom0A0 bottom0A0.250.00 A0right0"/>
    </vehicle>
    <vehicle id="56" type="passenger" depart="25.55">
        <route edges="bottom0A0.250.00 A0left0"/>
    </vehicle>
    <vehicle id="58" type="passenger" depart="26.40">
        <route edges="right0A0 right0A0.250.00 A0left0"/>
    </vehicle>
    <vehicle id="60" type="passenger" depart="27.05">
        <route edges="right0A0.250.00 A0top0"/>
    </vehicle>
    <vehicle id="61" type="passenger" depart="27.50">
        <route edges="top0A0.250.00"/>
    </vehicle>
    <vehicle id="64" type="passenger" depart="28.55">
        <route edges="bottom0A0 bottom0A0.250.00 A0top0"/>
    </vehicle>
    <vehicle id="70" type="passenger" depart="31.05">
        <route edges="top0A0 top0A0.250.00 A0bottom0"/>
    </vehicle>
    <vehicle id="71" type="passenger" depart="31.10">
        <route edges="bottom0A0 bottom0A0.250.00 A0right0"/>
    </vehicle>
    <vehicle id="72" type="passenger" depart="31.15">
        <route edges="right0A0 right0A0.250.00 A0bottom0"/>
    </vehicle>
    <vehicle id="73" type="passenger" depart="31.95">
        <route edges="top0A0 top0A0.250.00 A0bottom0"/>
    </vehicle>
    <vehicle id="74" type="passenger" depart="32.25">
        <route edges="right0A0 right0A0.250.00 A0bottom0"/>
    </vehicle>
    <vehicle id="77" type="passenger" depart="34.45">
        <route edges="left0A0 left0A0.250.00 A0top0"/>
    </vehicle>
    <vehicle id="78" type="passenger" depart="34.80">
        <route edges="top0A0.250.00 A0left0"/>
    </vehicle>
    <vehicle id="83" type="passenger" depart="36.55">
        <route edges="top0A0.250.00"/>
    </vehicle>
    <vehicle id="84" type="passenger" depart="37.70">
        <route edges="bottom0A0 bottom0A0.250.00"/>
    </vehicle>
    <vehicle id="88" type="passenger" depart="38.05">
        <route edges="bottom0A0.250.00 A0right0"/>
    </vehicle>
    <vehicle id="89" type="passenger" depart="39.00">
        <route edges="top0A0 top0A0.250.00 A0right0"/>
    </vehicle>
    <vehicle id="92" type="passenger" depart="40.10">
        <route edges="bottom0A0 bottom0A0.250.00 A0right0"/>
    </vehicle>
    <vehicle id="93" type="passenger" depart="41.25">
        <route edges="right0A0.250.00 A0bottom0"/>
    </vehicle>
    <vehicle id="95" type="passenger" depart="41.50">
        <route edges="top0A0.250.00 A0right0"/>
    </vehicle>
    <vehicle id="100" type="passenger" depart="43.85">
        <route edges="bottom0A0 bottom0A0.250.00"/>
    </vehicle>
    <vehicle id="101" type="passenger" depart="44.55">
        <route edges="left0A0 left0A0.250.00 A0top0"/>
    </vehicle>
    <vehicle id="102" type="passenger" depart="44.80">
        <route edges="top0A0 top0A0.250.00 A0right0"/>
    </vehicle>
    <vehicle id="103" type="passenger" depart="46.25">
        <route edges="bottom0A0.250.00 A0right0"/>
    </vehicle>
    <vehicle id="104" type="passenger" depart="46.40">
        <route edges="bottom0A0.250.00"/>
    </vehicle>
    <vehicle id="106" type="passenger" depart="48.00">
        <route edges="left0A0.250.00"/>
    </vehicle>
    <vehicle id="111" type="passenger" depart="49.30">
        <route edges="right0A0 right0A0.250.00 A0left0"/>
    </vehicle>
    <vehicle id="112" type="passenger" depart="49.85">
        <route edges="left0A0 left0A0.250.00 A0right0"/>
    </vehicle>
    <vehicle id="116" type="passenger" depart="52.95">
        <route edges="right0A0.250.00"/>
    </vehicle>
    <vehicle id="119" type="passenger" depart="53.40">
        <route edges="bottom0A0.250.00 A0top0"/>
    </vehicle>
    <vehicle id="122" type="passenger" depart="54.05">
        <route edges="left0A0.250.00 A0top0"/>
    </vehicle>
    <vehicle id="125" type="passenger" depart="54.65">
        <route edges="bottom0A0 bottom0A0.250.00"/>
    </vehicle>
    <vehicle id="126" type="passenger" depart="55.15">
        <route edges="left0A0.250.00 A0top0"/>
    </vehicle>
    <vehicle id="127" type="passenger" depart="55.35">
        <route edges="right0A0.250.00 A0left0"/>
    </vehicle>
    <vehicle id="129" type="passenger" depart="56.70">
        <route edges="top0A0 top0A0.250.00"/>
    </vehicle>
    <vehicle id="130" type="passenger" depart="56.85">
        <route edges="top0A0.250.00 A0bottom0"/>
    </vehicle>
    <vehicle id="131" type="passenger" depart="57.75">
        <route edges="bottom0A0 bottom0A0.250.00"/>
    </vehicle>
    <vehicle id="133" type="passenger" depart="58.65">
        <route edges="top0A0 top0A0.250.00 A0bottom0"/>
    </vehicle>
    <vehicle id="134" type="passenger" depart="58.65">
        <route edges="left0A0 left0A0.250.00 A0bottom0"/>
    </vehicle>
    <vehicle id="135" type="passenger" depart="59.50">
        <route edges="top0A0.250.00 A0bottom0"/>
    </vehicle>
    <vehicle id="138" type="passenger" depart="60.25">
        <route edges="right0A0.250.00"/>
    </vehicle>
    <vehicle id="141" type="passenger" depart="61.45">
        <route edges="top0A0.250.00 A0bottom0"/>
    </vehicle>
    <vehicle id="142" type="passenger" depart="61.75">
        <route edges="right0A0.250.00"/>
    </vehicle>
    <vehicle id="144" type="passenger" depart="63.40">
        <route edges="left0A0.250.00"/>
    </vehicle>
    <vehicle id="148" type="passenger" depart="64.75">
        <route edges="left0A0.250.00 A0bottom0"/>
    </vehicle>
    <vehicle id="151" type="passenger" depart="65.50">
        <route edges="left0A0 left0A0.250.00"/>
    </vehicle>
    <vehicle id="152" type="passenger" depart="66.15">
        <route edges="right0A0.250.00 A0top0"/>
    </vehicle>
    <vehicle id="153" type="passenger" depart="67.15">
        <route edges="bottom0A0 bottom0A0.250.00 A0top0"/>
    </vehicle>
    <vehicle id="154" type="passenger" depart="67.20">
        <route edges="top0A0 top0A0.250.00 A0right0"/>
    </vehicle>
    <vehicle id="156" type="passenger" depart="67.60">
        <route edges="bottom0A0 bottom0A0.250.00 A0left0"/>
    </vehicle>
    <vehicle id="158" type="passenger" depart="68.75">
        <route edges="right0A0.250.00"/>
    </vehicle>
    <vehicle id="159" type="passenger" depart="69.05">
        <route edges="right0A0.250.00 A0top0"/>
    </vehicle>
    <vehicle id="163" type="passenger" depart="70.85">
        <route edges="bottom0A0 bottom0A0.250.00"/>
    </vehicle>
    <vehicle id="164" type="passenger" depart="71.05">
        <route edges="top0A0 top0A0.250.00 A0right0"/>
    </vehicle>
    <vehicle id="165" type="passenger" depart="71.25">
        <route edges="top0A0.250.00 A0left0"/>
    </vehicle>
    <vehicle id="166" type="passenger" depart="71.75">
        <route edges="bottom0A0.250.00 A0top0"/>
    </vehicle>
    <vehicle id="170" type="passenger" depart="72.70">
        <route edges="left0A0 left0A0.250.00 A0top0"/>
    </vehicle>
    <vehicle id="173" type="passenger" depart="74.00">
        <route edges="right0A0 right0A0.250.00 A0left0"/>
    </vehicle>
    <vehicle id="177" type="passenger" depart="74.50">
        <route edges="top0A0 top0A0.250.00"/>
    </vehicle>
    <vehicle id="180" type="passenger" depart="75.10">
        <route edges="right0A0 right0A0.250.00 A0bottom0"/>
    </vehicle>
    <vehicle id="182" type="passenger" depart="75.70">
        <route edges="top0A0.250.00 A0right0"/>
    </vehicle>
    <vehicle id="185" type="passenger" depart="76.45">
        <route edges="left0A0.250.00"/>
    </vehicle>
    <vehicle id="189" type="passenger" depart="78.20">
        <route edges="bottom0A0.250.00 A0top0"/>
    </vehicle>
    <vehicle id="192" type="passenger" depart="78.95">
        <route edges="bottom0A0 bottom0A0.250.00 A0right0"/>
    </vehicle>
    <vehicle id="197" type="passenger" depart="80.25">
        <route edges="right0A0 right0A0.250.00 A0left0"/>
    </vehicle>
    <vehicle id="201" type="passenger" depart="80.80">
        <route edges="bottom0A0.250.00 A0top0"/>
    </vehicle>
    <vehicle id="202" type="passenger" depart="81.05">
        <route edges="bottom0A0.250.00 A0top0"/>
    </vehicle>
    <vehicle id="203" type="passenger" depart="81.75">
        <route edges="right0A0 right0A0.250.00"/>
    </vehicle>
    <vehicle id="204" type="passenger" depart="82.15">
        <route edges="left0A0 left0A0.250.00"/>
    </vehicle>
    <vehicle id="206" type="passenger" depart="82.70">
        <route edges="top0A0 top0A0.250.00 A0bottom0"/>
    </vehicle>
    <vehicle id="207" type="passenger" depart="83.00">
        <route edges="bottom0A0 bottom0A0.250.00 A0top0"/>
    </vehicle>
    <vehicle id="208" type="passenger" depart="83.30">
        <route edges="bottom0A0.250.00"/>
    </vehicle>
    <vehicle id="210" type="passenger" depart="83.60">
        <route edges="top0A0 top0A0.250.00 A0bottom0"/>
    </vehicle>
    <vehicle id="220" type="passenger" depart="87.45">
        <route edges="top0A0 top0A0.250.00 A0left0"/>
    </vehicle>
    <vehicle id="223" type="passenger" depart="87.65">
        <route edges="top0A0.250.00 A0left0"/>
    </vehicle>
    <vehicle id="228" type="passenger" depart="88.40">
        <route edges="left0A0.250.00 A0right0"/>
    </vehicle>
    <vehicle id="229" type="passenger" depart="88.50">
        <route edges="left0A0.250.00 A0bottom0"/>
    </vehicle>
    <vehicle id="231" type="passenger" depart="89.70">
        <route edges="left0A0 left0A0.250.00 A0right0"/>
    </vehicle>
    <vehicle id="238" type="passenger" depart="92.90">
        <route edges="bottom0A0.250.00 A0right0"/>
    </vehicle>
    <vehicle id="239" type="passenger" depart="94.10">
        <route edges="top0A0.250.00"/>
    </vehicle>
    <vehicle id="240" type="passenger" depart="94.60">
        <route edges="bottom0A0.250.00 A0top0"/>
    </vehicle>
    <vehicle id="242" type="passenger" depart="95.80">
        <route edges="right0A0.250.00 A0top0"/>
    </vehicle>
    <vehicle id="244" type="passenger" depart="96.85">
        <route edges="right0A0.250.00"/>
    </vehicle>
    <vehicle id="245" type="passenger" depart="97.10">
        <route edges="right0A0.250.00"/>
    </vehicle>
    <vehicle id="246" type="passenger" depart="97.50">
        <route edges="top0A0 top0A0.250.00 A0right0"/>
    </vehicle>
    <vehicle id="249" type="passenger" depart="98.50">
        <route edges="bottom0A0.250.00 A0left0"/>
    </vehicle>
    <vehicle id="251" type="passenger" depart="98.85">
        <route edges="left0A0 left0A0.250.00 A0bottom0"/>
    </vehicle>
    <vehicle id="252" type="passenger" depart="99.25">
        <route edges="top0A0.250.00"/>
    </vehicle>
    <vehicle id="253" type="passenger" depart="100.10">
        <route edges="left0A0 left0A0.250.00"/>
    </vehicle>
    <vehicle id="254" type="passenger" depart="100.45">
        <route edges="bottom0A0.250.00 A0left0"/>
    </vehicle>
    <vehicle id="258" type="passenger" depart="101.75">
        <route edges="bottom0A0.250.00"/>
    </vehicle>
    <vehicle id="268" type="passenger" depart="105.30">
        <route edges="left0A0.250.00 A0top0"/>
    </vehicle>
    <vehicle id="270" type="passenger" depart="106.90">
        <route edges="top0A0.250.00 A0left0"/>
    </vehicle>
    <vehicle id="272" type="passenger" depart="108.50">
        <route edges="bottom0A0.250.00 A0top0"/>
    </vehicle>
    <vehicle id="273" type="passenger" depart="109.60">
        <route edges="top0A0.250.00 A0left0"/>
    </vehicle>
    <vehicle id="277" type="passenger" depart="111.75">
        <route edges="left0A0 left0A0.250.00"/>
    </vehicle>
    <vehicle id="279" type="passenger" depart="114.30">
        <route edges="top0A0.250.00"/>
    </vehicle>
    <vehicle id="280" type="passenger" depart="114.60">
        <route edges="bottom0A0.250.00 A0right0"/>
    </vehicle>
    <vehicle id="281" type="passenger" depart="115.10">
        <route edges="bottom0A0.250.00 A0left0"/>
    </vehicle>
    <vehicle id="282" type="passenger" depart="115.50">
        <route edges="top0A0.250.00"/>
    </vehicle>
    <vehicle id="285" type="passenger" depart="116.75">
        <route edges="right0A0.250.00 A0bottom0"/>
    </vehicle>
    <vehicle id="287" type="passenger" depart="117.40">
        <route edges="right0A0.250.00"/>
    </vehicle>
    <vehicle id="288" type="passenger" depart="117.60">
        <route edges="top0A0 top0A0.250.00 A0right0"/>
    </vehicle>
    <vehicle id="289" type="passenger" depart="117.60">
        <route edges="top0A0 top0A0.250.00 A0bottom0"/>
    </vehicle>
    <vehicle id="290" type="passenger" depart="118.00">
        <route edges="left0A0.250.00 A0bottom0"/>
    </vehicle>
    <vehicle id="292" type="passenger" depart="118.60">
        <route edges="right0A0 right0A0.250.00 A0bottom0"/>
    </vehicle>
    <vehicle id="294" type="passenger" depart="120.00">
        <route edges="left0A0 left0A0.250.00"/>
    </vehicle>
    <vehicle id="295" type="passenger" depart="121.15">
        <route edges="bottom0A0 bottom0A0.250.00"/>
    </vehicle>
    <vehicle id="296" type="passenger" depart="121.70">
        <route edges="left0A0 left0A0.250.00 A0right0"/>
    </vehicle>
    <vehicle id="300" type="passenger" depart="124.20">
        <route edges="bottom0A0 bottom0A0.250.00"/>
    </vehicle>
    <vehicle id="301" type="passenger" depart="124.25">
        <route edges="top0A0 top0A0.250.00 A0left0"/>
    </vehicle>
    <vehicle id="302" type="passenger" depart="124.95">
        <route edges="bottom0A0 bottom0A0.250.00"/>
    </vehicle>
    <vehicle id="303" type="passenger" depart="125.10">
        <route edges="top0A0 top0A0.250.00 A0bottom0"/>
    </vehicle>
    <vehicle id="306" type="passenger" depart="125.70">
        <route edges="bottom0A0.250.00"/>
    </vehicle>
    <vehicle id="307" type="passenger" depart="125.85">
        <route edges="left0A0.250.00 A0top0"/>
    </vehicle>
    <vehicle id="308" type="passenger" depart="126.25">
        <route edges="top0A0 top0A0.250.00 A0bottom0"/>
    </vehicle>
    <vehicle id="309" type="passenger" depart="126.40">
        <route edges="left0A0.250.00 A0top0"/>
    </vehicle>
    <vehicle id="312" type="passenger" depart="127.35">
        <route edges="bottom0A0.250.00 A0right0"/>
    </vehicle>
    <vehicle id="319" type="passenger" depart="129.80">
        <route edges="right0A0.250.00 A0left0"/>
    </vehicle>
    <vehicle id="321" type="passenger" depart="130.45">
        <route edges="bottom0A0 bottom0A0.250.00 A0top0"/>
    </vehicle>
    <vehicle id="324" type="passenger" depart="130.90">
        <route edges="left0A0 left0A0.250.00"/>
    </vehicle>
    <vehicle id="325" type="passenger" depart="131.95">
        <route edges="right0A0.250.00"/>
    </vehicle>
    <vehicle id="326" type="passenger" depart="133.55">
        <route edges="left0A0 left0A0.250.00 A0right0"/>
    </vehicle>
    <vehicle id="328" type="passenger" depart="134.80">
        <route edges="top0A0.250.00"/>
    </vehicle>
    <vehicle id="330" type="passenger" depart="135.25">
        <route edges="bottom0A0.250.00 A0right0"/>
    </vehicle>
    <vehicle id="331" type="passenger" depart="135.40">
        <route edges="right0A0.250.00 A0bottom0"/>
    </vehicle>
    <vehicle id="332" type="passenger" depart="135.55">
        <route edges="bottom0A0.250.00 A0top0"/>
    </vehicle>
    <vehicle id="334" type="passenger" depart="135.85">
        <route edges="left0A0.250.00 A0top0"/>
    </vehicle>
    <vehicle id="337" type="passenger" depart="137.60">
        <route edges="left0A0 left0A0.250.00 A0right0"/>
    </vehicle>
    <vehicle id="338" type="passenger" depart="138.30">
        <route edges="right0A0 right0A0.250.00 A0top0"/>
    </vehicle>
    <vehicle id="340" type="passenger" depart="138.55">
        <route edges="bottom0A0 bottom0A0.250.00 A0left0"/>
    </vehicle>
    <vehicle id="342" type="passenger" depart="139.30">
        <route edges="bottom0A0.250.00 A0right0"/>
    </vehicle>
    <vehicle id="347" type="passenger" depart="141.70">
        <route edges="left0A0.250.00 A0right0"/>
    </vehicle>
    <vehicle id="349" type="passenger" depart="142.50">
        <route edges="top0A0.250.00 A0right0"/>
    </vehicle>
    <vehicle id="351" type="passenger" depart="145.10">
        <route edges="top0A0.250.00 A0right0"/>
    </vehicle>
    <vehicle id="352" type="passenger" depart="145.95">
        <route edges="right0A0 right0A0.250.00"/>
    </vehicle>
    <vehicle id="353" type="passenger" depart="146.45">
        <route edges="bottom0A0 bottom0A0.250.00 A0right0"/>
    </vehicle>
    <vehicle id="354" type="passenger" depart="146.60">
        <route edges="left0A0.250.00 A0right0"/>
    </vehicle>
    <vehicle id="355" type="passenger" depart="146.65">
        <route edges="bottom0A0 bottom0A0.250.00 A0left0"/>
    </vehicle>
    <vehicle id="356" type="passenger" depart="146.65">
        <route edges="bottom0A0.250.00 A0top0"/>
    </vehicle>
    <vehicle id="358" type="passenger" depart="148.05">
        <route edges="right0A0.250.00 A0left0"/>
    </vehicle>
    <vehicle id="359" type="passenger" depart="148.10">
        <route edges="left0A0.250.00 A0right0"/>
    </vehicle>
    <vehicle id="361" type="passenger" depart="148.70">
        <route edges="left0A0 left0A0.250.00 A0bottom0"/>
    </vehicle>
    <vehicle id="364" type="passenger" depart="149.95">
        <route edges="right0A0.250.00 A0top0"/>
    </vehicle>
    <vehicle id="368" type="passenger" depart="151.85">
        <route edges="left0A0.250.00 A0right0"/>
    </vehicle>
    <vehicle id="369" type="passenger" depart="151.90">
        <route edges="top0A0.250.00 A0left0"/>
    </vehicle>
    <vehicle id="370" type="passenger" depart="152.35">
        <route edges="right0A0 right0A0.250.00 A0top0"/>
    </vehicle>
    <vehicle id="371" type="passenger" depart="152.45">
        <route edges="left0A0 left0A0.250.00 A0top0"/>
    </vehicle>
    <vehicle id="372" type="passenger" depart="152.60">
        <route edges="left0A0.250.00 A0bottom0"/>
    </vehicle>
    <vehicle id="375" type="passenger" depart="154.85">
        <route edges="top0A0 top0A0.250.00"/>
    </vehicle>
    <vehicle id="376" type="passenger" depart="154.95">
        <route edges="top0A0 top0A0.250.00"/>
    </vehicle>
    <vehicle id="384" type="passenger" depart="159.05">
        <route edges="right0A0 right0A0.250.00 A0bottom0"/>
    </vehicle>
    <vehicle id="388" type="passenger" depart="161.10">
        <route edges="right0A0 right0A0.250.00"/>
    </vehicle>
    <vehicle id="389" type="passenger" depart="161.60">
        <route edges="top0A0.250.00 A0right0"/>
    </vehicle>
    <vehicle id="390" type="passenger" depart="161.65">
        <route edges="left0A0 left0A0.250.00 A0right0"/>
    </vehicle>
    <vehicle id="395" type="passenger" depart="163.25">
        <route edges="right0A0.250.00"/>
    </vehicle>
    <vehicle id="396" type="passenger" depart="163.55">
        <route edges="right0A0.250.00 A0top0"/>
    </vehicle>
    <vehicle id="399" type="passenger" depart="164.35">
        <route edges="right0A0.250.00 A0left0"/>
    </vehicle>
    <vehicle id="400" type="passenger" depart="164.45">
        <route edges="bottom0A0.250.00 A0top0"/>
    </vehicle>
    <vehicle id="401" type="passenger" depart="164.60">
        <route edges="left0A0.250.00"/>
    </vehicle>
    <vehicle id="404" type="passenger" depart="166.50">
        <route edges="bottom0A0 bottom0A0.250.00"/>
    </vehicle>
    <vehicle id="406" type="passenger" depart="168.75">
        <route edges="top0A0 top0A0.250.00 A0left0"/>
    </vehicle>
    <vehicle id="409" type="passenger" depart="170.90">
        <route edges="bottom0A0 bottom0A0.250.00"/>
    </vehicle>
    <vehicle id="410" type="passenger" depart="171.40">
        <route edges="right0A0.250.00 A0left0"/>
    </vehicle>
    <vehicle id="413" type="passenger" depart="172.75">
        <route edges="right0A0.250.00"/>
    </vehicle>
    <vehicle id="414" type="passenger" depart="173.65">
        <route edges="bottom0A0.250.00 A0right0"/>
    </vehicle>
    <vehicle id="415" type="passenger" depart="173.85">
        <route edges="bottom0A0.250.00 A0top0"/>
    </vehicle>
    <vehicle id="416" type="passenger" depart="174.00">
        <route edges="bottom0A0 bottom0A0.250.00"/>
    </vehicle>
    <vehicle id="418" type="passenger" depart="174.75">
        <route edges="top0A0.250.00 A0bottom0"/>
    </vehicle>
    <vehicle id="419" type="passenger" depart="175.65">
        <route edges="top0A0 top0A0.250.00"/>
    </vehicle>
    <vehicle id="421" type="passenger" depart="175.80">
        <route edges="bottom0A0 bottom0A0.250.00 A0right0"/>
    </vehicle>
    <vehicle id="423" type="passenger" depart="178.10">
        <route edges="left0A0 left0A0.250.00"/>
    </vehicle>
    <vehicle id="425" type="passenger" depart="180.25">
        <route edges="bottom0A0 bottom0A0.250.00 A0right0"/>
    </vehicle>
    <vehicle id="426" type="passenger" depart="180.35">
        <route edges="right0A0 right0A0.250.00"/>
    </vehicle>
    <vehicle id="428" type="passenger" depart="181.70">
        <route edges="left0A0 left0A0.250.00 A0right0"/>
    </vehicle>
    <vehicle id="429" type="passenger" depart="181.95">
        <route edges="left0A0 left0A0.250.00 A0bottom0"/>
    </vehicle>
    <vehicle id="430" type="passenger" depart="183.15">
        <route edges="right0A0.250.00 A0bottom0"/>
    </vehicle>
    <vehicle id="438" type="passenger" depart="189.20">
        <route edges="left0A0 left0A0.250.00 A0bottom0"/>
    </vehicle>
    <vehicle id="439" type="passenger" depart="189.60">
        <route edges="bottom0A0.250.00 A0top0"/>
    </vehicle>
    <vehicle id="440" type="passenger" depart="189.75">
        <route edges="left0A0 left0A0.250.00 A0right0"/>
    </vehicle>
    <vehicle id="441" type="passenger" depart="190.35">
        <route edges="right0A0 right0A0.250.00"/>
    </vehicle>
    <vehicle id="442" type="passenger" depart="190.50">
        <route edges="bottom0A0.250.00"/>
    </vehicle>
    <vehicle id="443" type="passenger" depart="190.95">
        <route edges="left0A0 left0A0.250.00 A0bottom0"/>
    </vehicle>
    <vehicle id="444" type="passenger" depart="191.20">
        <route edges="bottom0A0 bottom0A0.250.00"/>
    </vehicle>
    <vehicle id="445" type="passenger" depart="191.65">
        <route edges="top0A0.250.00 A0right0"/>
    </vehicle>
    <vehicle id="451" type="passenger" depart="193.95">
        <route edges="left0A0.250.00"/>
    </vehicle>
    <vehicle id="454" type="passenger" depart="196.05">
        <route edges="right0A0 right0A0.250.00 A0bottom0"/>
    </vehicle>
    <vehicle id="455" type="passenger" depart="196.15">
        <route edges="left0A0.250.00 A0right0"/>
    </vehicle>
    <vehicle id="457" type="passenger" depart="196.85">
        <route edges="right0A0 right0A0.250.00"/>
    </vehicle>
    <vehicle id="459" type="passenger" depart="197.95">
        <route edges="right0A0 right0A0.250.00 A0left0"/>
    </vehicle>
    <vehicle id="462" type="passenger" depart="198.90">
        <route edges="bottom0A0 bottom0A0.250.00"/>
    </vehicle>
    <vehicle id="463" type="passenger" depart="199.00">
        <route edges="left0A0 left0A0.250.00 A0top0"/>
    </vehicle>
    <vehicle id="464" type="passenger" depart="199.20">
        <route edges="right0A0 right0A0.250.00 A0top0"/>
    </vehicle>
    <vehicle id="465" type="passenger" depart="199.50">
        <route edges="bottom0A0 bottom0A0.250.00"/>
    </vehicle>
    <vehicle id="467" type="passenger" depart="200.00">
        <route edges="right0A0 right0A0.250.00"/>
    </vehicle>
    <vehicle id="469" type="passenger" depart="201.80">
        <route edges="left0A0.250.00 A0right0"/>
    </vehicle>
    <vehicle id="470" type="passenger" depart="202.65">
        <route edges="right0A0 right0A0.250.00 A0bottom0"/>
    </vehicle>
    <vehicle id="475" type="passenger" depart="203.90">
        <route edges="bottom0A0 bottom0A0.250.00 A0right0"/>
    </vehicle>
    <vehicle id="476" type="passenger" depart="204.65">
        <route edges="left0A0 left0A0.250.00 A0right0"/>
    </vehicle>
    <vehicle id="477" type="passenger" depart="205.65">
        <route edges="bottom0A0 bottom0A0.250.00 A0left0"/>
    </vehicle>
    <vehicle id="479" type="passenger" depart="205.80">
        <route edges="left0A0.250.00 A0top0"/>
    </vehicle>
    <vehicle id="480" type="passenger" depart="205.80">
        <route edges="bottom0A0 bottom0A0.250.00 A0right0"/>
    </vehicle>
    <vehicle id="481" type="passenger" depart="206.05">
        <route edges="bottom0A0.250.00 A0left0"/>
    </vehicle>
    <vehicle id="482" type="passenger" depart="206.85">
        <route edges="right0A0 right0A0.250.00 A0bottom0"/>
    </vehicle>
    <vehicle id="484" type="passenger" depart="207.45">
        <route edges="top0A0 top0A0.250.00 A0right0"/>
    </vehicle>
    <vehicle id="485" type="passenger" depart="207.45">
        <route edges="bottom0A0.250.00"/>
    </vehicle>
    <vehicle id="487" type="passenger" depart="209.05">
        <route edges="left0A0.250.00 A0top0"/>
    </vehicle>
    <vehicle id="490" type="passenger" depart="209.90">
        <route edges="right0A0 right0A0.250.00 A0left0"/>
    </vehicle>
    <vehicle id="491" type="passenger" depart="210.95">
        <route edges="left0A0 left0A0.250.00 A0top0"/>
    </vehicle>
    <vehicle id="493" type="passenger" depart="213.00">
        <route edges="right0A0.250.00 A0left0"/>
    </vehicle>
    <vehicle id="495" type="passenger" depart="214.15">
        <route edges="bottom0A0.250.00 A0top0"/>
    </vehicle>
    <vehicle id="498" type="passenger" depart="217.85">
        <route edges="left0A0.250.00 A0right0"/>
    </vehicle>