<?xml version="1.0" encoding="UTF-8"?>

<!-- generated on 2023-02-12 18:46:44.755751 by randomTrips.py UNKNOWN
<configuration>
    <begin value="0"/>
    <end value="900"/>
    <insertion-rate value="12500.0"/>
    <net-file value="/home/franky3er/Documents/code/HieraGLight/scenarios/grid/5x5-150m/train/41-scenario/network.net.xml"/>
    <random value="True"/>
    <random-depart value="True"/>
    <route-file value="/home/franky3er/Documents/code/HieraGLight/scenarios/grid/5x5-150m/train/41-scenario/routes.rou.xml"/>
    <seed value="41"/>
    <output-trip-file value="/home/franky3er/Documents/code/HieraGLight/scenarios/grid/5x5-150m/train/41-scenario/trips.trips.xml"/>
    <vehicle-class value="passenger"/>
</configuration>
-->

<!-- generated on 2023-02-12 18:46:44 by Eclipse SUMO duarouter Version 1.15.0
<configuration xmlns:xsi="http://www.w3.org/2001/XMLSchema-instance" xsi:noNamespaceSchemaLocation="http://sumo.dlr.de/xsd/duarouterConfiguration.xsd">

    <input>
        <net-file value="/home/franky3er/Documents/code/HieraGLight/scenarios/grid/5x5-150m/train/41-scenario/network.net.xml"/>
        <route-files value="/home/franky3er/Documents/code/HieraGLight/scenarios/grid/5x5-150m/train/41-scenario/trips.trips.xml"/>
    </input>

    <output>
        <output-file value="/home/franky3er/Documents/code/HieraGLight/scenarios/grid/5x5-150m/train/41-scenario/routes.rou.xml"/>
        <alternatives-output value="NUL"/>
    </output>

    <time>
        <begin value="0"/>
        <end value="900"/>
    </time>

    <report>
        <no-warnings value="true"/>
        <ignore-errors value="true"/>
        <no-step-log value="true"/>
    </report>

</configuration>
-->

<routes xmlns:xsi="http://www.w3.org/2001/XMLSchema-instance" xsi:noNamespaceSchemaLocation="http://sumo.dlr.de/xsd/routes_file.xsd">
    <vType id="passenger" vClass="passenger"/>
    <vehicle id="0" type="passenger" depart="0.30">
        <route edges="E4E3 E4E3.80.00 E3E2 E3E2.80.00 E2D2 E2D2.80.00 D2C2 D2C2.80.00 C2C1 C2C1.80.00 C1D1"/>
    </vehicle>
    <vehicle id="2" type="passenger" depart="1.52">
        <route edges="C0B0.80.00 B0B1 B0B1.80.00 B1C1 B1C1.80.00 C1C0 C1C0.80.00 C0D0 C0D0.80.00"/>
    </vehicle>
    <vehicle id="3" type="passenger" depart="1.95">
        <route edges="A1B1.80.00"/>
    </vehicle>
    <vehicle id="4" type="passenger" depart="2.07">
        <route edges="bottom2C0.80.00 C0B0 C0B0.80.00 B0B1 B0B1.80.00 B1B2 B1B2.80.00 B2B3 B2B3.80.00 B3B4 B3B4.80.00 B4C4 B4C4.80.00 C4C3 C4C3.80.00"/>
    </vehicle>
    <vehicle id="5" type="passenger" depart="2.25">
        <route edges="E1D1 E1D1.80.00 D1C1 D1C1.80.00 C1C0 C1C0.80.00 C0D0 C0D0.80.00 D0D1"/>
    </vehicle>
    <vehicle id="6" type="passenger" depart="2.54">
        <route edges="B1B2 B1B2.80.00 B2C2 B2C2.80.00 C2C1 C2C1.80.00 C1B1 C1B1.80.00 B1A1 B1A1.80.00"/>
    </vehicle>
    <vehicle id="8" type="passenger" depart="2.63">
        <route edges="bottom1B0.80.00 B0A0 B0A0.80.00"/>
    </vehicle>
    <vehicle id="9" type="passenger" depart="2.71">
        <route edges="A4A3 A4A3.80.00 A3A2 A3A2.80.00 A2B2 A2B2.80.00 B2C2 B2C2.80.00 C2C3"/>
    </vehicle>
    <vehicle id="10" type="passenger" depart="3.07">
        <route edges="D1E1 D1E1.80.00 E1E2 E1E2.80.00 E2E3 E2E3.80.00 E3D3 E3D3.80.00 D3C3 D3C3.80.00 C3B3 C3B3.80.00 B3A3 B3A3.80.00 A3A2"/>
    </vehicle>
    <vehicle id="11" type="passenger" depart="3.50">
        <route edges="D2E2.80.00 E2E1 E2E1.80.00 E1E0 E1E0.80.00 E0D0 E0D0.80.00 D0D1 D0D1.80.00 D1E1 D1E1.80.00"/>
    </vehicle>
    <vehicle id="12" type="passenger" depart="4.22">
        <route edges="D0E0.80.00 E0E1 E0E1.80.00 E1D1 E1D1.80.00 D1C1 D1C1.80.00 C1B1 C1B1.80.00 B1B2 B1B2.80.00 B2C2 B2C2.80.00"/>
    </vehicle>
    <vehicle id="13" type="passenger" depart="5.84">
        <route edges="D1C1.80.00 C1B1 C1B1.80.00 B1B0 B1B0.80.00 B0C0 B0C0.80.00 C0C1"/>
    </vehicle>
    <vehicle id="14" type="passenger" depart="6.72">
        <route edges="C2C3 C2C3.80.00 C3B3 C3B3.80.00 B3B2 B3B2.80.00 B2A2 B2A2.80.00 A2A3 A2A3.80.00"/>
    </vehicle>
    <vehicle id="15" type="passenger" depart="6.86">
        <route edges="B4B3 B4B3.80.00 B3C3 B3C3.80.00 C3D3 C3D3.80.00 D3E3 D3E3.80.00 E3E2 E3E2.80.00 E2E1 E2E1.80.00"/>
    </vehicle>
    <vehicle id="17" type="passenger" depart="7.47">
        <route edges="C0D0 C0D0.80.00 D0E0 D0E0.80.00 E0right0"/>
    </vehicle>
    <vehicle id="19" type="passenger" depart="8.14">
        <route edges="C4C3.80.00 C3D3 C3D3.80.00 D3D2 D3D2.80.00 D2D1 D2D1.80.00 D1C1 D1C1.80.00 C1C2 C1C2.80.00"/>
    </vehicle>
    <vehicle id="20" type="passenger" depart="8.36">
        <route edges="D2C2 D2C2.80.00 C2C1 C2C1.80.00"/>
    </vehicle>
    <vehicle id="21" type="passenger" depart="8.42">
        <route edges="E4D4.80.00 D4D3 D4D3.80.00 D3E3 D3E3.80.00 E3E2 E3E2.80.00 E2E1 E2E1.80.00 E1D1 E1D1.80.00 D1D2 D1D2.80.00"/>
    </vehicle>
    <vehicle id="23" type="passenger" depart="8.63">
        <route edges="B1B0 B1B0.80.00 B0C0 B0C0.80.00 C0C1"/>
    </vehicle>
    <vehicle id="24" type="passenger" depart="8.97">
        <route edges="A0A1 A0A1.80.00 A1B1 A1B1.80.00 B1C1 B1C1.80.00 C1C0 C1C0.80.00 C0D0 C0D0.80.00"/>
    </vehicle>
    <vehicle id="25" type="passenger" depart="9.17">
        <route edges="B0A0 B0A0.80.00 A0A1 A0A1.80.00 A1A2 A1A2.80.00 A2B2 A2B2.80.00 B2C2 B2C2.80.00 C2C1"/>
    </vehicle>
    <vehicle id="26" type="passenger" depart="9.42">
        <route edges="D2D1.80.00 D1D0 D1D0.80.00 D0C0 D0C0.80.00 C0B0 C0B0.80.00 B0A0 B0A0.80.00"/>
    </vehicle>
    <vehicle id="28" type="passenger" depart="10.02">
        <route edges="bottom2C0.80.00 C0C1 C0C1.80.00 C1C2 C1C2.80.00 C2C3 C2C3.80.00 C3C4 C3C4.80.00 C4D4 C4D4.80.00 D4E4"/>
    </vehicle>
    <vehicle id="29" type="passenger" depart="10.13">
        <route edges="C0C1 C0C1.80.00 C1B1 C1B1.80.00 B1B0 B1B0.80.00 B0A0 B0A0.80.00 A0A1 A0A1.80.00 A1B1"/>
    </vehicle>
    <vehicle id="30" type="passenger" depart="10.19">
        <route edges="B1C1 B1C1.80.00 C1D1 C1D1.80.00 D1D2 D1D2.80.00 D2D3 D2D3.80.00 D3C3 D3C3.80.00"/>
    </vehicle>
    <vehicle id="31" type="passenger" depart="10.65">
        <route edges="left1A1 left1A1.80.00 A1B1 A1B1.80.00 B1B2 B1B2.80.00 B2B3 B2B3.80.00 B3B4 B3B4.80.00 B4A4 B4A4.80.00 A4A3"/>
    </vehicle>
    <vehicle id="32" type="passenger" depart="10.70">
        <route edges="A3A4 A3A4.80.00 A4B4 A4B4.80.00 B4C4 B4C4.80.00 C4D4 C4D4.80.00 D4D3 D4D3.80.00 D3D2 D3D2.80.00 D2E2 D2E2.80.00"/>
    </vehicle>
    <vehicle id="33" type="passenger" depart="11.86">
        <route edges="D3E3 D3E3.80.00 E3E2 E3E2.80.00 E2E1 E2E1.80.00 E1E0 E1E0.80.00 E0D0 E0D0.80.00 D0C0 D0C0.80.00 C0C1 C0C1.80.00"/>
    </vehicle>
    <vehicle id="34" type="passenger" depart="12.14">
        <route edges="C3C4 C3C4.80.00 C4B4 C4B4.80.00 B4A4 B4A4.80.00 A4A3"/>
    </vehicle>
    <vehicle id="35" type="passenger" depart="12.34">
        <route edges="A4A3.80.00 A3B3 A3B3.80.00 B3C3 B3C3.80.00 C3C4 C3C4.80.00 C4B4 C4B4.80.00"/>
    </vehicle>
    <vehicle id="37" type="passenger" depart="12.50">
        <route edges="E1E2.80.00 E2D2 E2D2.80.00 D2D1 D2D1.80.00 D1D0 D1D0.80.00 D0bottom3"/>
    </vehicle>
    <vehicle id="38" type="passenger" depart="12.79">
        <route edges="top0A4.80.00 A4B4 A4B4.80.00 B4B3 B4B3.80.00 B3A3"/>
    </vehicle>
    <vehicle id="39" type="passenger" depart="12.94">
        <route edges="left1A1 left1A1.80.00 A1A2 A1A2.80.00 A2A3 A2A3.80.00"/>
    </vehicle>
    <vehicle id="40" type="passenger" depart="13.18">
        <route edges="E1E2 E1E2.80.00 E2D2 E2D2.80.00 D2C2 D2C2.80.00 C2C1 C2C1.80.00 C1D1"/>
    </vehicle>
    <vehicle id="41" type="passenger" depart="13.28">
        <route edges="C2B2.80.00 B2A2 B2A2.80.00 A2A3 A2A3.80.00 A3B3 A3B3.80.00 B3B2 B3B2.80.00 B2C2"/>
    </vehicle>
    <vehicle id="42" type="passenger" depart="13.44">
        <route edges="left4A4 left4A4.80.00 A4B4 A4B4.80.00 B4B3 B4B3.80.00 B3C3 B3C3.80.00 C3C4 C3C4.80.00 C4B4"/>
    </vehicle>
    <vehicle id="43" type="passenger" depart="13.66">
        <route edges="C3C2.80.00 C2C1 C2C1.80.00 C1D1 C1D1.80.00 D1E1 D1E1.80.00"/>
    </vehicle>
    <vehicle id="44" type="passenger" depart="13.82">
        <route edges="left0A0.80.00 A0A1 A0A1.80.00 A1B1 A1B1.80.00"/>
    </vehicle>
    <vehicle id="45" type="passenger" depart="14.34">
        <route edges="E2E3 E2E3.80.00 E3E4 E3E4.80.00 E4D4 E4D4.80.00 D4C4 D4C4.80.00 C4B4 C4B4.80.00 B4A4 B4A4.80.00 A4A3 A4A3.80.00"/>
    </vehicle>
    <vehicle id="46" type="passenger" depart="14.45">
        <route edges="C0B0.80.00 B0B1 B0B1.80.00 B1A1 B1A1.80.00 A1A0 A1A0.80.00 A0B0 A0B0.80.00"/>
    </vehicle>
    <vehicle id="47" type="passenger" depart="14.60">
        <route edges="C4D4.80.00 D4D3 D4D3.80.00 D3D2 D3D2.80.00 D2D1 D2D1.80.00 D1C1 D1C1.80.00 C1C0 C1C0.80.00"/>
    </vehicle>
    <vehicle id="48" type="passenger" depart="14.62">
        <route edges="left2A2.80.00 A2B2 A2B2.80.00 B2B3 B2B3.80.00 B3B4 B3B4.80.00 B4A4"/>
    </vehicle>
    <vehicle id="49" type="passenger" depart="14.94">
        <route edges="D2E2 D2E2.80.00 E2E3 E2E3.80.00 E3E4 E3E4.80.00 E4D4 E4D4.80.00 D4C4 D4C4.80.00 C4B4 C4B4.80.00 B4B3"/>
    </vehicle>
    <vehicle id="50" type="passenger" depart="14.94">
        <route edges="A3B3 A3B3.80.00 B3B4 B3B4.80.00 B4C4 B4C4.80.00 C4D4 C4D4.80.00 D4E4"/>
    </vehicle>
    <vehicle id="51" type="passenger" depart="15.45">
        <route edges="C2C1 C2C1.80.00 C1C0 C1C0.80.00 C0B0 C0B0.80.00 B0A0 B0A0.80.00 A0A1 A0A1.80.00 A1B1"/>
    </vehicle>
    <vehicle id="52" type="passenger" depart="15.82">
        <route edges="B2B3 B2B3.80.00 B3B4 B3B4.80.00 B4A4 B4A4.80.00 A4A3"/>
    </vehicle>
    <vehicle id="53" type="passenger" depart="16.01">
        <route edges="D3C3.80.00 C3B3 C3B3.80.00 B3A3"/>
    </vehicle>
    <vehicle id="55" type="passenger" depart="16.26">
        <route edges="A3B3 A3B3.80.00 B3C3 B3C3.80.00 C3C4 C3C4.80.00 C4B4"/>
    </vehicle>
    <vehicle id="56" type="passenger" depart="16.70">
        <route edges="left4A4 left4A4.80.00 A4B4 A4B4.80.00 B4B3 B4B3.80.00 B3B2 B3B2.80.00 B2A2"/>
    </vehicle>
    <vehicle id="57" type="passenger" depart="16.74">
        <route edges="C0B0.80.00 B0B1 B0B1.80.00 B1B2 B1B2.80.00 B2C2 B2C2.80.00 C2D2 C2D2.80.00 D2D1"/>
    </vehicle>
    <vehicle id="58" type="passenger" depart="17.47">
        <route edges="B2C2 B2C2.80.00 C2C3 C2C3.80.00 C3D3 C3D3.80.00 D3E3 D3E3.80.00"/>
    </vehicle>
    <vehicle id="59" type="passenger" depart="17.98">
        <route edges="top2C4.80.00 C4C3 C4C3.80.00 C3C2 C3C2.80.00 C2B2 C2B2.80.00 B2A2 B2A2.80.00 A2A1 A2A1.80.00 A1B1 A1B1.80.00"/>
    </vehicle>
    <vehicle id="60" type="passenger" depart="18.51">
        <route edges="top0A4 top0A4.80.00 A4B4 A4B4.80.00 B4C4 B4C4.80.00 C4D4 C4D4.80.00 D4E4 D4E4.80.00 E4E3 E4E3.80.00"/>
    </vehicle>
    <vehicle id="61" type="passenger" depart="19.08">
        <route edges="E3E2.80.00 E2D2 E2D2.80.00 D2C2 D2C2.80.00 C2C3 C2C3.80.00 C3C4 C3C4.80.00 C4D4 C4D4.80.00"/>
    </vehicle>
    <vehicle id="62" type="passenger" depart="19.38">
        <route edges="C4D4.80.00 D4D3 D4D3.80.00 D3D2 D3D2.80.00 D2C2 D2C2.80.00 C2B2 C2B2.80.00 B2A2 B2A2.80.00 A2A3 A2A3.80.00 A3B3 A3B3.80.00"/>
    </vehicle>
    <vehicle id="63" type="passenger" depart="19.79">
        <route edges="B2B1.80.00 B1A1 B1A1.80.00 A1A2 A1A2.80.00 A2B2 A2B2.80.00 B2C2 B2C2.80.00 C2C1 C2C1.80.00"/>
    </vehicle>
    <vehicle id="64" type="passenger" depart="19.96">
        <route edges="left4A4 left4A4.80.00 A4A3 A4A3.80.00 A3A2 A3A2.80.00 A2A1 A2A1.80.00 A1B1 A1B1.80.00"/>
    </vehicle>
    <vehicle id="65" type="passenger" depart="20.27">
        <route edges="D3D4.80.00 D4C4 D4C4.80.00 C4C3 C4C3.80.00 C3B3 C3B3.80.00"/>
    </vehicle>
    <vehicle id="66" type="passenger" depart="20.58">
        <route edges="right2E2.80.00 E2D2 E2D2.80.00 D2D1 D2D1.80.00 D1E1 D1E1.80.00 E1E2"/>
    </vehicle>
    <vehicle id="67" type="passenger" depart="20.58">
        <route edges="D0C0 D0C0.80.00 C0C1 C0C1.80.00 C1D1 C1D1.80.00 D1E1 D1E1.80.00 E1E2 E1E2.80.00 E2D2"/>
    </vehicle>
    <vehicle id="68" type="passenger" depart="20.61">
        <route edges="C3D3.80.00 D3D4 D3D4.80.00 D4C4 D4C4.80.00 C4C3 C4C3.80.00 C3C2"/>
    </vehicle>
    <vehicle id="69" type="passenger" depart="20.68">
        <route edges="E3D3.80.00 D3C3 D3C3.80.00 C3C2 C3C2.80.00"/>
    </vehicle>
    <vehicle id="70" type="passenger" depart="21.04">
        <route edges="C3B3.80.00 B3B2 B3B2.80.00 B2B1 B2B1.80.00 B1C1 B1C1.80.00 C1D1 C1D1.80.00 D1E1"/>
    </vehicle>
    <vehicle id="72" type="passenger" depart="21.82">
        <route edges="C3C4.80.00 C4D4 C4D4.80.00 D4D3 D4D3.80.00 D3D2 D3D2.80.00 D2D1 D2D1.80.00 D1C1 D1C1.80.00"/>
    </vehicle>
    <vehicle id="73" type="passenger" depart="22.03">
        <route edges="C0D0 C0D0.80.00 D0E0 D0E0.80.00 E0E1 E0E1.80.00 E1D1 E1D1.80.00 D1D0 D1D0.80.00"/>
    </vehicle>
    <vehicle id="74" type="passenger" depart="22.31">
        <route edges="E1E2.80.00 E2E3 E2E3.80.00 E3E4 E3E4.80.00 E4D4 E4D4.80.00 D4C4 D4C4.80.00 C4B4 C4B4.80.00 B4A4 B4A4.80.00 A4A3"/>
    </vehicle>
    <vehicle id="75" type="passenger" depart="22.77">
        <route edges="top0A4.80.00 A4A3 A4A3.80.00 A3A2 A3A2.80.00 A2B2 A2B2.80.00 B2C2"/>
    </vehicle>
    <vehicle id="76" type="passenger" depart="22.93">
        <route edges="bottom0A0 bottom0A0.80.00 A0A1 A0A1.80.00 A1B1 A1B1.80.00 B1C1 B1C1.80.00 C1D1 C1D1.80.00 D1E1 D1E1.80.00 E1E2 E1E2.80.00 E2D2"/>
    </vehicle>
    <vehicle id="77" type="passenger" depart="23.07">
        <route edges="A1B1 A1B1.80.00 B1B2 B1B2.80.00 B2B3 B2B3.80.00 B3C3 B3C3.80.00"/>
    </vehicle>
    <vehicle id="78" type="passenger" depart="24.46">
        <route edges="C4D4.80.00 D4E4 D4E4.80.00 E4E3 E4E3.80.00 E3E2 E3E2.80.00 E2E1"/>
    </vehicle>
    <vehicle id="79" type="passenger" depart="24.52">
        <route edges="B3B4.80.00 B4C4 B4C4.80.00 C4D4 C4D4.80.00 D4E4 D4E4.80.00"/>
    </vehicle>
    <vehicle id="80" type="passenger" depart="24.95">
        <route edges="B4B3.80.00 B3B2 B3B2.80.00 B2B1 B2B1.80.00 B1A1 B1A1.80.00 A1A2 A1A2.80.00"/>
    </vehicle>
    <vehicle id="81" type="passenger" depart="25.57">
        <route edges="A1A2 A1A2.80.00 A2A3 A2A3.80.00 A3A4 A3A4.80.00 A4B4 A4B4.80.00 B4B3"/>
    </vehicle>
    <vehicle id="82" type="passenger" depart="25.75">
        <route edges="A1A0 A1A0.80.00 A0B0 A0B0.80.00 B0B1 B0B1.80.00 B1A1 B1A1.80.00 A1A2 A1A2.80.00 A2A3 A2A3.80.00 A3B3 A3B3.80.00 B3B2"/>
    </vehicle>
    <vehicle id="83" type="passenger" depart="25.78">
        <route edges="D0C0.80.00 C0B0 C0B0.80.00 B0A0 B0A0.80.00 A0A1 A0A1.80.00 A1left1"/>
    </vehicle>
    <vehicle id="84" type="passenger" depart="25.97">
        <route edges="C0C1 C0C1.80.00 C1C2 C1C2.80.00 C2C3 C2C3.80.00 C3C4 C3C4.80.00 C4D4 C4D4.80.00 D4E4 D4E4.80.00"/>
    </vehicle>
    <vehicle id="85" type="passenger" depart="26.04">
        <route edges="E0D0 E0D0.80.00 D0C0 D0C0.80.00 C0C1 C0C1.80.00 C1C2"/>
    </vehicle>
    <vehicle id="86" type="passenger" depart="26.23">
        <route edges="C2C3.80.00 C3D3 C3D3.80.00 D3D2 D3D2.80.00 D2D1 D2D1.80.00 D1C1"/>
    </vehicle>
    <vehicle id="87" type="passenger" depart="27.09">
        <route edges="A3B3.80.00 B3C3 B3C3.80.00 C3C2 C3C2.80.00 C2C1 C2C1.80.00 C1D1 C1D1.80.00 D1D2"/>
    </vehicle>
    <vehicle id="88" type="passenger" depart="27.28">
        <route edges="C0C1 C0C1.80.00 C1C2 C1C2.80.00 C2D2 C2D2.80.00 D2D1 D2D1.80.00 D1C1 D1C1.80.00 C1C0"/>
    </vehicle>
    <vehicle id="89" type="passenger" depart="27.33">
        <route edges="right2E2 right2E2.80.00 E2D2 E2D2.80.00 D2C2 D2C2.80.00 C2B2 C2B2.80.00 B2B3 B2B3.80.00 B3C3 B3C3.80.00"/>
    </vehicle>
    <vehicle id="90" type="passenger" depart="27.50">
        <route edges="top4E4.80.00 E4E3 E4E3.80.00 E3E2 E3E2.80.00 E2D2 E2D2.80.00 D2C2 D2C2.80.00 C2C1 C2C1.80.00 C1C0 C1C0.80.00 C0D0"/>
    </vehicle>
    <vehicle id="92" type="passenger" depart="28.10">
        <route edges="C2C1 C2C1.80.00 C1D1 C1D1.80.00 D1E1 D1E1.80.00 E1E2"/>
    </vehicle>
    <vehicle id="93" type="passenger" depart="28.37">
        <route edges="D4D3 D4D3.80.00 D3E3 D3E3.80.00 E3E2 E3E2.80.00 E2E1 E2E1.80.00 E1E0 E1E0.80.00 E0D0 E0D0.80.00 D0D1"/>
    </vehicle>
    <vehicle id="94" type="passenger" depart="28.62">
        <route edges="A2A3.80.00 A3B3 A3B3.80.00 B3C3 B3C3.80.00 C3D3 C3D3.80.00 D3D2 D3D2.80.00 D2D1 D2D1.80.00 D1D0 D1D0.80.00 D0E0 D0E0.80.00"/>
    </vehicle>
    <vehicle id="95" type="passenger" depart="28.67">
        <route edges="top2C4 top2C4.80.00 C4D4 C4D4.80.00 D4D3 D4D3.80.00 D3D2 D3D2.80.00 D2D1"/>
    </vehicle>
    <vehicle id="96" type="passenger" depart="28.69">
        <route edges="A3B3 A3B3.80.00 B3B4 B3B4.80.00 B4C4 B4C4.80.00 C4D4 C4D4.80.00 D4D3 D4D3.80.00 D3C3"/>
    </vehicle>
    <vehicle id="98" type="passenger" depart="29.69">
        <route edges="bottom3D0.80.00 D0C0 D0C0.80.00 C0B0 C0B0.80.00 B0B1 B0B1.80.00 B1B2 B1B2.80.00 B2B3"/>
    </vehicle>
    <vehicle id="99" type="passenger" depart="29.75">
        <route edges="D1C1 D1C1.80.00 C1C2 C1C2.80.00 C2D2 C2D2.80.00 D2D1"/>
    </vehicle>
    <vehicle id="100" type="passenger" depart="29.77">
        <route edges="C2C1 C2C1.80.00 C1C0 C1C0.80.00 C0B0 C0B0.80.00 B0A0 B0A0.80.00 A0A1 A0A1.80.00"/>
    </vehicle>
    <vehicle id="101" type="passenger" depart="29.86">
        <route edges="C3C2 C3C2.80.00 C2C1 C2C1.80.00 C1C0 C1C0.80.00 C0B0 C0B0.80.00"/>
    </vehicle>
    <vehicle id="102" type="passenger" depart="30.39">
        <route edges="C0B0.80.00 B0B1 B0B1.80.00 B1B2 B1B2.80.00 B2C2 B2C2.80.00 C2D2 C2D2.80.00 D2E2 D2E2.80.00 E2right2"/>
    </vehicle>
    <vehicle id="103" type="passenger" depart="30.62">
        <route edges="B1B2.80.00 B2A2 B2A2.80.00"/>
    </vehicle>
    <vehicle id="105" type="passenger" depart="30.83">
        <route edges="bottom4E0.80.00 E0D0 E0D0.80.00 D0C0 D0C0.80.00 C0C1 C0C1.80.00 C1C2 C1C2.80.00 C2C3"/>
    </vehicle>
    <vehicle id="106" type="passenger" depart="31.22">
        <route edges="top0A4 top0A4.80.00 A4B4 A4B4.80.00 B4C4 B4C4.80.00 C4D4 C4D4.80.00 D4E4 D4E4.80.00 E4E3 E4E3.80.00 E3D3"/>
    </vehicle>
    <vehicle id="107" type="passenger" depart="31.53">
        <route edges="C2C1.80.00 C1B1 C1B1.80.00 B1A1 B1A1.80.00 A1A2 A1A2.80.00 A2A3 A2A3.80.00 A3A4 A3A4.80.00 A4B4"/>
    </vehicle>
    <vehicle id="109" type="passenger" depart="31.71">
        <route edges="A4B4.80.00 B4C4 B4C4.80.00 C4D4 C4D4.80.00 D4D3 D4D3.80.00 D3D2 D3D2.80.00 D2D1 D2D1.80.00 D1D0 D1D0.80.00 D0C0"/>
    </vehicle>
    <vehicle id="110" type="passenger" depart="31.82">
        <route edges="D2D3.80.00 D3C3 D3C3.80.00 C3C2 C3C2.80.00 C2C1 C2C1.80.00 C1B1 C1B1.80.00 B1B2 B1B2.80.00"/>
    </vehicle>
    <vehicle id="111" type="passenger" depart="31.93">
        <route edges="D2C2.80.00 C2C1 C2C1.80.00 C1D1 C1D1.80.00 D1E1 D1E1.80.00 E1E0 E1E0.80.00"/>
    </vehicle>
    <vehicle id="112" type="passenger" depart="32.13">
        <route edges="D3D4.80.00 D4E4 D4E4.80.00 E4E3 E4E3.80.00 E3E2 E3E2.80.00 E2D2 E2D2.80.00"/>
    </vehicle>
    <vehicle id="114" type="passenger" depart="32.32">
        <route edges="E4E3 E4E3.80.00 E3E2 E3E2.80.00 E2E1 E2E1.80.00 E1D1 E1D1.80.00 D1C1 D1C1.80.00 C1B1 C1B1.80.00 B1B0 B1B0.80.00"/>
    </vehicle>
    <vehicle id="115" type="passenger" depart="32.54">
        <route edges="bottom4E0 bottom4E0.80.00 E0D0 E0D0.80.00 D0C0 D0C0.80.00 C0B0 C0B0.80.00 B0B1 B0B1.80.00 B1B2 B1B2.80.00"/>
    </vehicle>
    <vehicle id="116" type="passenger" depart="32.62">
        <route edges="D2D3 D2D3.80.00 D3D4 D3D4.80.00 D4C4 D4C4.80.00"/>
    </vehicle>
    <vehicle id="117" type="passenger" depart="32.98">
        <route edges="B1C1.80.00 C1C0 C1C0.80.00 C0B0 C0B0.80.00 B0A0 B0A0.80.00 A0A1 A0A1.80.00 A1left1"/>
    </vehicle>
    <vehicle id="118" type="passenger" depart="33.28">
        <route edges="left0A0 left0A0.80.00 A0B0 A0B0.80.00 B0C0 B0C0.80.00 C0D0 C0D0.80.00 D0D1 D0D1.80.00 D1D2 D1D2.80.00 D2D3 D2D3.80.00 D3D4 D3D4.80.00 D4top3"/>
    </vehicle>
    <vehicle id="119" type="passenger" depart="33.54">
        <route edges="left2A2.80.00 A2A3 A2A3.80.00 A3B3"/>
    </vehicle>
    <vehicle id="120" type="passenger" depart="33.68">
        <route edges="A4A3.80.00 A3B3 A3B3.80.00 B3C3 B3C3.80.00 C3D3 C3D3.80.00 D3D2 D3D2.80.00 D2D1 D2D1.80.00 D1C1"/>
    </vehicle>
    <vehicle id="121" type="passenger" depart="33.91">
        <route edges="B3B2.80.00 B2C2 B2C2.80.00 C2D2 C2D2.80.00 D2D3 D2D3.80.00"/>
    </vehicle>
    <vehicle id="122" type="passenger" depart="34.24">
        <route edges="C0D0.80.00 D0D1 D0D1.80.00 D1C1 D1C1.80.00 C1B1 C1B1.80.00 B1A1 B1A1.80.00 A1A2 A1A2.80.00 A2A3 A2A3.80.00 A3A4 A3A4.80.00 A4top0"/>
    </vehicle>
    <vehicle id="123" type="passenger" depart="35.24">
        <route edges="D2E2.80.00 E2E3 E2E3.80.00 E3D3 E3D3.80.00 D3D2 D3D2.80.00 D2D1"/>
    </vehicle>
    <vehicle id="124" type="passenger" depart="35.47">
        <route edges="B1A1 B1A1.80.00 A1A2 A1A2.80.00 A2A3 A2A3.80.00 A3B3 A3B3.80.00 B3C3 B3C3.80.00 C3D3 C3D3.80.00 D3E3 D3E3.80.00 E3E2 E3E2.80.00"/>
    </vehicle>
    <vehicle id="125" type="passenger" depart="35.48">
        <route edges="C4D4.80.00 D4D3 D4D3.80.00 D3D2 D3D2.80.00 D2D1 D2D1.80.00 D1E1 D1E1.80.00 E1E2 E1E2.80.00"/>
    </vehicle>
    <vehicle id="126" type="passenger" depart="35.63">
        <route edges="E0D0 E0D0.80.00 D0C0 D0C0.80.00 C0C1 C0C1.80.00 C1B1 C1B1.80.00 B1B0 B1B0.80.00"/>
    </vehicle>
    <vehicle id="127" type="passenger" depart="36.58">
        <route edges="A3A4.80.00 A4B4 A4B4.80.00 B4C4 B4C4.80.00 C4D4 C4D4.80.00 D4E4 D4E4.80.00 E4E3"/>
    </vehicle>
    <vehicle id="128" type="passenger" depart="36.94">
        <route edges="A3A2 A3A2.80.00 A2B2 A2B2.80.00 B2C2 B2C2.80.00 C2D2 C2D2.80.00 D2D3 D2D3.80.00"/>
    </vehicle>
    <vehicle id="129" type="passenger" depart="37.30">
        <route edges="A2B2.80.00 B2B3 B2B3.80.00 B3C3 B3C3.80.00 C3D3 C3D3.80.00 D3D2 D3D2.80.00 D2C2"/>
    </vehicle>
    <vehicle id="130" type="passenger" depart="37.50">
        <route edges="bottom3D0 bottom3D0.80.00 D0D1 D0D1.80.00 D1E1 D1E1.80.00 E1E2 E1E2.80.00 E2D2 E2D2.80.00"/>
    </vehicle>
    <vehicle id="132" type="passenger" depart="38.12">
        <route edges="B3B2 B3B2.80.00 B2C2 B2C2.80.00 C2C1 C2C1.80.00 C1B1 C1B1.80.00"/>
    </vehicle>
    <vehicle id="133" type="passenger" depart="38.32">
        <route edges="A3B3.80.00 B3C3 B3C3.80.00 C3D3 C3D3.80.00 D3D2 D3D2.80.00 D2E2 D2E2.80.00 E2E3"/>
    </vehicle>
    <vehicle id="134" type="passenger" depart="38.46">
        <route edges="C3D3 C3D3.80.00 D3D2 D3D2.80.00 D2D1 D2D1.80.00 D1D0 D1D0.80.00 D0C0 D0C0.80.00 C0bottom2"/>
    </vehicle>
    <vehicle id="135" type="passenger" depart="38.50">
        <route edges="C0D0 C0D0.80.00 D0E0 D0E0.80.00 E0E1 E0E1.80.00 E1E2"/>
    </vehicle>
    <vehicle id="136" type="passenger" depart="38.53">
        <route edges="D3E3 D3E3.80.00 E3E2 E3E2.80.00 E2E1 E2E1.80.00 E1D1 E1D1.80.00 D1D0 D1D0.80.00 D0E0 D0E0.80.00 E0E1"/>
    </vehicle>
    <vehicle id="137" type="passenger" depart="38.64">
        <route edges="E2E3 E2E3.80.00 E3E4 E3E4.80.00 E4D4 E4D4.80.00 D4D3"/>
    </vehicle>
    <vehicle id="138" type="passenger" depart="38.73">
        <route edges="right0E0.80.00 E0E1 E0E1.80.00 E1D1 E1D1.80.00 D1C1 D1C1.80.00 C1C0"/>
    </vehicle>
    <vehicle id="139" type="passenger" depart="39.44">
        <route edges="A3A4 A3A4.80.00 A4B4 A4B4.80.00 B4C4 B4C4.80.00 C4D4 C4D4.80.00 D4D3 D4D3.80.00 D3D2 D3D2.80.00 D2D1 D2D1.80.00 D1D0 D1D0.80.00 D0C0 D0C0.80.00"/>
    </vehicle>
    <vehicle id="140" type="passenger" depart="39.50">
        <route edges="A1A0.80.00 A0B0 A0B0.80.00 B0C0 B0C0.80.00 C0D0 C0D0.80.00 D0E0 D0E0.80.00 E0right0"/>
    </vehicle>
    <vehicle id="141" type="passenger" depart="39.55">
        <route edges="D3D2 D3D2.80.00 D2C2 D2C2.80.00 C2C1"/>
    </vehicle>
    <vehicle id="142" type="passenger" depart="39.94">
        <route edges="A2A1 A2A1.80.00 A1B1 A1B1.80.00 B1B0 B1B0.80.00 B0A0 B0A0.80.00 A0A1 A0A1.80.00"/>
    </vehicle>
    <vehicle id="143" type="passenger" depart="40.14">
        <route edges="right3E3.80.00 E3D3 E3D3.80.00 D3C3 D3C3.80.00 C3C2 C3C2.80.00 C2C1"/>
    </vehicle>
    <vehicle id="144" type="passenger" depart="40.20">
        <route edges="E2E3 E2E3.80.00 E3D3 E3D3.80.00 D3C3 D3C3.80.00 C3B3 C3B3.80.00 B3A3 B3A3.80.00 A3A2 A3A2.80.00 A2A1 A2A1.80.00 A1A0 A1A0.80.00 A0bottom0"/>
    </vehicle>
    <vehicle id="145" type="passenger" depart="40.22">
        <route edges="A1A0 A1A0.80.00 A0B0 A0B0.80.00 B0B1 B0B1.80.00 B1A1"/>
    </vehicle>
    <vehicle id="146" type="passenger" depart="40.55">
        <route edges="A0A1.80.00 A1B1 A1B1.80.00 B1C1 B1C1.80.00 C1D1 C1D1.80.00 D1D0 D1D0.80.00"/>
    </vehicle>
    <vehicle id="147" type="passenger" depart="41.30">
        <route edges="D4E4.80.00 E4E3 E4E3.80.00 E3D3 E3D3.80.00 D3C3 D3C3.80.00 C3B3 C3B3.80.00 B3A3 B3A3.80.00 A3A4 A3A4.80.00"/>
    </vehicle>
    <vehicle id="148" type="passenger" depart="41.31">
        <route edges="B1A1.80.00 A1A2 A1A2.80.00 A2B2 A2B2.80.00 B2C2 B2C2.80.00 C2D2"/>
    </vehicle>
    <vehicle id="149" type="passenger" depart="41.76">
        <route edges="left3A3 left3A3.80.00 A3A4 A3A4.80.00 A4B4 A4B4.80.00 B4C4 B4C4.80.00 C4D4 C4D4.80.00 D4E4 D4E4.80.00 E4E3 E4E3.80.00 E3D3 E3D3.80.00"/>
    </vehicle>
    <vehicle id="150" type="passenger" depart="42.06">
        <route edges="E1E0.80.00 E0D0 E0D0.80.00 D0D1 D0D1.80.00 D1D2 D1D2.80.00 D2E2 D2E2.80.00 E2E3 E2E3.80.00 E3D3 E3D3.80.00"/>
    </vehicle>
    <vehicle id="151" type="passenger" depart="42.13">
        <route edges="C3D3 C3D3.80.00 D3D2 D3D2.80.00 D2D1 D2D1.80.00 D1D0 D1D0.80.00 D0C0 D0C0.80.00 C0B0 C0B0.80.00 B0A0 B0A0.80.00"/>
    </vehicle>
    <vehicle id="152" type="passenger" depart="42.22">
        <route edges="C1D1 C1D1.80.00 D1D0 D1D0.80.00 D0C0 D0C0.80.00 C0B0 C0B0.80.00 B0A0 B0A0.80.00 A0A1 A0A1.80.00 A1A2"/>
    </vehicle>
    <vehicle id="153" type="passenger" depart="42.65">
        <route edges="D2C2 D2C2.80.00 C2C1 C2C1.80.00 C1B1 C1B1.80.00 B1A1 B1A1.80.00 A1left1"/>
    </vehicle>
    <vehicle id="154" type="passenger" depart="43.93">
        <route edges="B0C0 B0C0.80.00 C0C1 C0C1.80.00 C1C2 C1C2.80.00 C2D2"/>
    </vehicle>
    <vehicle id="155" type="passenger" depart="44.07">
        <route edges="right3E3 right3E3.80.00 E3E2 E3E2.80.00 E2E1 E2E1.80.00 E1E0 E1E0.80.00 E0D0 E0D0.80.00 D0D1 D0D1.80.00"/>
    </vehicle>
    <vehicle id="156" type="passenger" depart="44.34">
        <route edges="A2A1 A2A1.80.00 A1B1 A1B1.80.00 B1B2 B1B2.80.00 B2A2 B2A2.80.00 A2A3 A2A3.80.00 A3B3 A3B3.80.00 B3B2"/>
    </vehicle>
    <vehicle id="157" type="passenger" depart="44.51">
        <route edges="B1C1.80.00 C1C0 C1C0.80.00 C0B0 C0B0.80.00 B0A0 B0A0.80.00 A0A1 A0A1.80.00 A1A2 A1A2.80.00"/>
    </vehicle>
    <vehicle id="158" type="passenger" depart="44.78">
        <route edges="B2B3.80.00 B3C3 B3C3.80.00 C3C2 C3C2.80.00 C2D2 C2D2.80.00"/>
    </vehicle>
    <vehicle id="159" type="passenger" depart="45.08">
        <route edges="C1C2.80.00 C2D2 C2D2.80.00 D2D1 D2D1.80.00 D1D0 D1D0.80.00 D0E0"/>
    </vehicle>
    <vehicle id="160" type="passenger" depart="45.08">
        <route edges="D0C0 D0C0.80.00 C0C1 C0C1.80.00 C1C2 C1C2.80.00 C2C3 C2C3.80.00 C3B3 C3B3.80.00 B3B2 B3B2.80.00"/>
    </vehicle>
    <vehicle id="161" type="passenger" depart="45.24">
        <route edges="left0A0.80.00 A0B0 A0B0.80.00 B0C0 B0C0.80.00 C0D0 C0D0.80.00 D0E0 D0E0.80.00 E0E1 E0E1.80.00 E1E2 E1E2.80.00 E2E3 E2E3.80.00 E3E4"/>
    </vehicle>
    <vehicle id="162" type="passenger" depart="45.54">
        <route edges="D4D3 D4D3.80.00 D3D2 D3D2.80.00 D2D1 D2D1.80.00 D1C1"/>
    </vehicle>
    <vehicle id="163" type="passenger" depart="46.61">
        <route edges="E3E4.80.00 E4D4 E4D4.80.00 D4D3 D4D3.80.00 D3D2 D3D2.80.00 D2E2 D2E2.80.00"/>
    </vehicle>
    <vehicle id="164" type="passenger" depart="46.64">
        <route edges="A1B1 A1B1.80.00 B1B2 B1B2.80.00 B2C2 B2C2.80.00 C2D2 C2D2.80.00 D2E2 D2E2.80.00 E2E1 E2E1.80.00"/>
    </vehicle>
    <vehicle id="166" type="passenger" depart="48.04">
        <route edges="D1C1 D1C1.80.00 C1C2 C1C2.80.00 C2C3 C2C3.80.00 C3C4 C3C4.80.00 C4B4 C4B4.80.00"/>
    </vehicle>
    <vehicle id="167" type="passenger" depart="48.28">
        <route edges="B3C3.80.00 C3C2 C3C2.80.00 C2C1 C2C1.80.00 C1C0 C1C0.80.00 C0bottom2"/>
    </vehicle>
    <vehicle id="168" type="passenger" depart="48.38">
        <route edges="D2C2 D2C2.80.00 C2B2 C2B2.80.00 B2B1 B2B1.80.00 B1B0 B1B0.80.00"/>
    </vehicle>
    <vehicle id="169" type="passenger" depart="48.95">
        <route edges="C4C3.80.00 C3C2 C3C2.80.00 C2C1 C2C1.80.00 C1B1 C1B1.80.00 B1A1 B1A1.80.00 A1left1"/>
    </vehicle>
    <vehicle id="170" type="passenger" depart="48.98">
        <route edges="A4B4.80.00 B4B3 B4B3.80.00 B3B2 B3B2.80.00 B2B1 B2B1.80.00 B1B0 B1B0.80.00 B0A0 B0A0.80.00 A0A1"/>
    </vehicle>
    <vehicle id="171" type="passenger" depart="49.23">
        <route edges="C0D0.80.00 D0D1 D0D1.80.00 D1C1 D1C1.80.00 C1C2 C1C2.80.00 C2C3 C2C3.80.00"/>
    </vehicle>
    <vehicle id="172" type="passenger" depart="49.43">
        <route edges="right2E2 right2E2.80.00 E2D2 E2D2.80.00 D2C2 D2C2.80.00 C2B2 C2B2.80.00 B2B3 B2B3.80.00 B3B4 B3B4.80.00 B4A4"/>
    </vehicle>
    <vehicle id="173" type="passenger" depart="49.53">
        <route edges="D2E2 D2E2.80.00 E2E1 E2E1.80.00 E1E0 E1E0.80.00 E0D0 E0D0.80.00 D0C0 D0C0.80.00"/>
    </vehicle>
    <vehicle id="174" type="passenger" depart="49.91">
        <route edges="E2E3.80.00 E3D3 E3D3.80.00 D3C3 D3C3.80.00 C3B3 C3B3.80.00 B3A3 B3A3.80.00 A3A2 A3A2.80.00 A2B2"/>
    </vehicle>
    <vehicle id="175" type="passenger" depart="50.08">
        <route edges="D0D1.80.00 D1E1 D1E1.80.00 E1E0 E1E0.80.00 E0D0 E0D0.80.00 D0C0"/>