<?xml version="1.0" encoding="UTF-8"?>

<!-- generated on 2023-02-12 18:46:27.685486 by randomTrips.py UNKNOWN
<configuration>
    <begin value="0"/>
    <end value="900"/>
    <insertion-rate value="12500.0"/>
    <net-file value="/home/franky3er/Documents/code/HieraGLight/scenarios/grid/5x5-150m/train/14-scenario/network.net.xml"/>
    <random value="True"/>
    <random-depart value="True"/>
    <route-file value="/home/franky3er/Documents/code/HieraGLight/scenarios/grid/5x5-150m/train/14-scenario/routes.rou.xml"/>
    <seed value="14"/>
    <output-trip-file value="/home/franky3er/Documents/code/HieraGLight/scenarios/grid/5x5-150m/train/14-scenario/trips.trips.xml"/>
    <vehicle-class value="passenger"/>
</configuration>
-->

<routes xmlns:xsi="http://www.w3.org/2001/XMLSchema-instance" xsi:noNamespaceSchemaLocation="http://sumo.dlr.de/xsd/routes_file.xsd">
    <vType id="passenger" vClass="passenger"/>
    <trip id="0" depart="0.01" from="C0B0.80.00" to="B4top1" type="passenger"/>
    <trip id="1" depart="0.10" from="C3B3" to="D4E4" type="passenger"/>
    <trip id="2" depart="0.18" from="D3C3" to="B3A3" type="passenger"/>
    <trip id="3" depart="0.57" from="E2E1" to="C3C4" type="passenger"/>
    <trip id="4" depart="1.85" from="left4A4.80.00" to="D1E1.80.00" type="passenger"/>
    <trip id="5" depart="2.10" from="D3D4" to="D0bottom3" type="passenger"/>
    <trip id="6" depart="2.34" from="bottom0A0.80.00" to="B0A0" type="passenger"/>
    <trip id="7" depart="2.48" from="D4E4.80.00" to="B2A2.80.00" type="passenger"/>
    <trip id="8" depart="2.56" from="left3A3" to="C4D4.80.00" type="passenger"/>
    <trip id="9" depart="3.01" from="A4A3" to="E2E1" type="passenger"/>
    <trip id="10" depart="3.15" from="A3B3" to="left4A4.80.00" type="passenger"/>
    <trip id="11" depart="3.38" from="bottom2C0.80.00" to="B1C1.80.00" type="passenger"/>
    <trip id="12" depart="3.42" from="D1C1" to="A0B0" type="passenger"/>
    <trip id="13" depart="3.52" from="D1D0.80.00" to="C2C1.80.00" type="passenger"/>
    <trip id="14" depart="3.58" from="B4B3.80.00" to="C3B3" type="passenger"/>
    <trip id="15" depart="3.94" from="B3B2" to="A3B3" type="passenger"/>
    <trip id="16" depart="3.98" from="E4D4" to="E2E3" type="passenger"/>
    <trip id="17" depart="4.21" from="D2D1.80.00" to="C3C4" type="passenger"/>
    <trip id="18" depart="4.52" from="B0C0" to="B0C0" type="passenger"/>
    <trip id="19" depart="4.53" from="B4A4" to="A3B3.80.00" type="passenger"/>
    <trip id="20" depart="4.53" from="A3A4" to="B0B1.80.00" type="passenger"/>
    <trip id="21" depart="4.82" from="C0C1.80.00" to="B2A2" type="passenger"/>
    <trip id="22" depart="5.36" from="C3D3" to="B0A0.80.00" type="passenger"/>
    <trip id="23" depart="5.42" from="D2E2.80.00" to="B2C2" type="passenger"/>
    <trip id="24" depart="6.11" from="C2C1.80.00" to="B2B3" type="passenger"/>
    <trip id="25" depart="6.29" from="D2C2.80.00" to="C4D4" type="passenger"/>
    <trip id="26" depart="6.66" from="D2D1.80.00" to="E4top4" type="passenger"/>
    <trip id="27" depart="7.08" from="C1D1.80.00" to="A4A3.80.00" type="passenger"/>
    <trip id="28" depart="9.01" from="left4A4" to="A1A2" type="passenger"/>
    <trip id="29" depart="9.06" from="D3D4" to="C3B3" type="passenger"/>
    <trip id="30" depart="10.08" from="A2A3" to="E3E2" type="passenger"/>
    <trip id="31" depart="10.20" from="C3D3" to="B1B2.80.00" type="passenger"/>
    <trip id="32" depart="10.21" from="C2D2.80.00" to="C3D3.80.00" type="passenger"/>
    <trip id="33" depart="10.36" from="D2D1" to="D2E2" type="passenger"/>
    <trip id="34" depart="10.62" from="bottom1B0.80.00" to="E3D3.80.00" type="passenger"/>
    <trip id="35" depart="10.87" from="D1D2" to="D3C3.80.00" type="passenger"/>
    <trip id="36" depart="11.21" from="top0A4" to="B4top1" type="passenger"/>
    <trip id="37" depart="11.98" from="E3D3" to="E2E3" type="passenger"/>
    <trip id="38" depart="11.99" from="E3E4.80.00" to="A1B1" type="passenger"/>
    <trip id="39" depart="12.15" from="C2C3.80.00" to="A0bottom0" type="passenger"/>
    <trip id="40" depart="12.30" from="B0A0.80.00" to="C1D1.80.00" type="passenger"/>
    <trip id="41" depart="12.52" from="bottom4E0" to="D3E3.80.00" type="passenger"/>
    <trip id="42" depart="12.56" from="E2D2" to="B1C1" type="passenger"/>
    <trip id="43" depart="12.90" from="E1E0" to="C0B0" type="passenger"/>
    <trip id="44" depart="12.94" from="C3C4" to="B0B1" type="passenger"/>
    <trip id="45" depart="13.18" from="B2B3.80.00" to="D3E3" type="passenger"/>
    <trip id="46" depart="13.53" from="D0C0" to="left1A1.80.00" type="passenger"/>
    <trip id="47" depart="13.62" from="E0E1.80.00" to="A0B0" type="passenger"/>
    <trip id="48" depart="13.68" from="C1B1.80.00" to="C3C2.80.00" type="passenger"/>
    <trip id="49" depart="13.72" from="D4E4" to="A4B4.80.00" type="passenger"/>
    <trip id="50" depart="14.62" from="B1C1.80.00" to="A2B2.80.00" type="passenger"/>
    <trip id="51" depart="14.71" from="B4C4" to="B0A0.80.00" type="passenger"/>
    <trip id="52" depart="14.86" from="A2A1" to="E3D3.80.00" type="passenger"/>
    <trip id="53" depart="15.51" from="top2C4.80.00" to="E3E4" type="passenger"/>
    <trip id="54" depart="15.53" from="B4A4.80.00" to="bottom4E0.80.00" type="passenger"/>
    <trip id="55" depart="15.78" from="B3C3.80.00" to="E1D1.80.00" type="passenger"/>
    <trip id="56" depart="16.34" from="A1A2.80.00" to="D3D4.80.00" type="passenger"/>
    <trip id="57" depart="16.36" from="top3D4" to="D1E1" type="passenger"/>
    <trip id="58" depart="16.41" from="top2C4" to="left4A4.80.00" type="passenger"/>
    <trip id="59" depart="16.46" from="B2B1.80.00" to="B4B3" type="passenger"/>
    <trip id="60" depart="16.52" from="left0A0.80.00" to="right2E2.80.00" type="passenger"/>
    <trip id="61" depart="17.30" from="B2A2" to="A4A3" type="passenger"/>
    <trip id="62" depart="17.34" from="C3C4.80.00" to="A1left1" type="passenger"/>
    <trip id="63" depart="17.54" from="B3B4" to="B2B3" type="passenger"/>
    <trip id="64" depart="17.82" from="left0A0" to="A0A1.80.00" type="passenger"/>
    <trip id="65" depart="18.06" from="C2D2.80.00" to="A0bottom0" type="passenger"/>
    <trip id="66" depart="18.38" from="A3A4" to="D4E4" type="passenger"/>
    <trip id="67" depart="18.84" from="E2E3.80.00" to="A4A3.80.00" type="passenger"/>
    <trip id="68" depart="18.85" from="B2B3" to="B0A0.80.00" type="passenger"/>
    <trip id="69" depart="19.94" from="D2D1" to="C2B2" type="passenger"/>
    <trip id="70" depart="19.96" from="E2D2.80.00" to="B0A0.80.00" type="passenger"/>
    <trip id="71" depart="20.14" from="A4B4" to="top4E4.80.00" type="passenger"/>
    <trip id="72" depart="20.29" from="C4B4" to="B1A1" type="passenger"/>
    <trip id="73" depart="20.50" from="A1A0.80.00" to="E3E4" type="passenger"/>
    <trip id="74" depart="20.75" from="C3C2" to="D2C2" type="passenger"/>
    <trip id="75" depart="20.80" from="top3D4" to="B4B3" type="passenger"/>
    <trip id="76" depart="20.90" from="B3A3" to="C1B1.80.00" type="passenger"/>
    <trip id="77" depart="20.93" from="A1A2" to="B4C4.80.00" type="passenger"/>
    <trip id="78" depart="21.00" from="right4E4" to="bottom1B0.80.00" type="passenger"/>
    <trip id="79" depart="21.26" from="D2E2" to="D3C3" type="passenger"/>
    <trip id="80" depart="21.45" from="D2C2" to="C3B3" type="passenger"/>
    <trip id="81" depart="21.81" from="D1D0.80.00" to="A0B0.80.00" type="passenger"/>
    <trip id="82" depart="21.81" from="D1E1.80.00" to="A3B3.80.00" type="passenger"/>
    <trip id="83" depart="21.84" from="E0D0.80.00" to="C0B0" type="passenger"/>
    <trip id="84" depart="21.87" from="B0A0.80.00" to="D3D2" type="passenger"/>
    <trip id="85" depart="22.02" from="C3D3.80.00" to="E1E2" type="passenger"/>
    <trip id="86" depart="22.05" from="left1A1" to="C3C2.80.00" type="passenger"/>
    <trip id="87" depart="22.49" from="D2C2.80.00" to="E3right3" type="passenger"/>
    <trip id="88" depart="22.78" from="B0B1" to="B2A2.80.00" type="passenger"/>
    <trip id="89" depart="22.89" from="D1E1.80.00" to="E1right1" type="passenger"/>
    <trip id="90" depart="22.98" from="C0B0.80.00" to="B4B3" type="passenger"/>
    <trip id="91" depart="23.18" from="E0E1" to="C3B3" type="passenger"/>
    <trip id="92" depart="23.55" from="A3A4.80.00" to="B2B3" type="passenger"/>
    <trip id="93" depart="23.76" from="E0D0.80.00" to="A4left4" type="passenger"/>
    <trip id="94" depart="23.77" from="bottom4E0" to="D0bottom3" type="passenger"/>
    <trip id="95" depart="24.70" from="D2C2.80.00" to="A1A0.80.00" type="passenger"/>
    <trip id="96" depart="24.76" from="D3D4" to="B1B2.80.00" type="passenger"/>
    <trip id="97" depart="25.29" from="D0C0.80.00" to="D4D3.80.00" type="passenger"/>
    <trip id="98" depart="25.76" from="bottom1B0.80.00" to="B0A0" type="passenger"/>
    <trip id="99" depart="25.79" from="bottom3D0.80.00" to="A2A1.80.00" type="passenger"/>
    <trip id="100" depart="25.82" from="bottom4E0.80.00" to="right3E3.80.00" type="passenger"/>
    <trip id="101" depart="26.50" from="C3C2.80.00" to="C1C0.80.00" type="passenger"/>
    <trip id="102" depart="26.54" from="D0C0" to="B0bottom1" type="passenger"/>
    <trip id="103" depart="27.31" from="D3C3" to="A0B0.80.00" type="passenger"/>
    <trip id="104" depart="27.72" from="B0B1" to="B4C4" type="passenger"/>
    <trip id="105" depart="27.78" from="A1A0.80.00" to="A3A4" type="passenger"/>
    <trip id="106" depart="28.34" from="D2E2" to="B1B0" type="passenger"/>
    <trip id="107" depart="28.47" from="B1C1" to="C0D0" type="passenger"/>
    <trip id="108" depart="28.56" from="A1A2" to="C3C4.80.00" type="passenger"/>
    <trip id="109" depart="30.10" from="A0A1.80.00" to="A0B0.80.00" type="passenger"/>
    <trip id="110" depart="30.26" from="E2E3.80.00" to="D4D3.80.00" type="passenger"/>
    <trip id="111" depart="30.33" from="C2C1.80.00" to="B0C0.80.00" type="passenger"/>
    <trip id="112" depart="30.54" from="right3E3.80.00" to="bottom0A0.80.00" type="passenger"/>
    <trip id="113" depart="30.57" from="D2E2" to="A1B1" type="passenger"/>
    <trip id="114" depart="31.15" from="bottom2C0" to="B3B2.80.00" type="passenger"/>
    <trip id="115" depart="31.21" from="top0A4.80.00" to="D1D0.80.00" type="passenger"/>
    <trip id="116" depart="31.29" from="B1A1.80.00" to="B1B0" type="passenger"/>
    <trip id="117" depart="31.33" from="C1C2.80.00" to="D1D0" type="passenger"/>
    <trip id="118" depart="31.61" from="B3B4.80.00" to="E1E0" type="passenger"/>
    <trip id="119" depart="32.74" from="A4A3" to="B4C4" type="passenger"/>
    <trip id="120" depart="32.98" from="left3A3.80.00" to="B3A3" type="passenger"/>
    <trip id="121" depart="33.52" from="left3A3.80.00" to="D1D2" type="passenger"/>
    <trip id="122" depart="35.20" from="E0E1.80.00" to="A0bottom0" type="passenger"/>
    <trip id="123" depart="35.42" from="A2B2.80.00" to="A0A1.80.00" type="passenger"/>
    <trip id="124" depart="35.53" from="C1C2" to="D0E0" type="passenger"/>
    <trip id="125" depart="35.98" from="bottom3D0.80.00" to="D2C2.80.00" type="passenger"/>
    <trip id="126" depart="36.18" from="A1A2.80.00" to="top3D4.80.00" type="passenger"/>
    <trip id="127" depart="36.53" from="B0A0" to="B2B1" type="passenger"/>
    <trip id="128" depart="37.26" from="E1D1" to="C1C2.80.00" type="passenger"/>
    <trip id="129" depart="37.33" from="right3E3.80.00" to="C3C2.80.00" type="passenger"/>
    <trip id="130" depart="38.12" from="D2C2.80.00" to="B4C4.80.00" type="passenger"/>
    <trip id="131" depart="38.54" from="C3D3.80.00" to="E2E3.80.00" type="passenger"/>
    <trip id="132" depart="38.58" from="A1A2" to="B2A2.80.00" type="passenger"/>
    <trip id="133" depart="38.68" from="B0A0.80.00" to="A2left2" type="passenger"/>
    <trip id="134" depart="38.74" from="C1C0.80.00" to="C4B4" type="passenger"/>
    <trip id="135" depart="38.74" from="E2D2.80.00" to="right2E2.80.00" type="passenger"/>
    <trip id="136" depart="39.46" from="B2B1" to="A1A2" type="passenger"/>
    <trip id="137" depart="39.48" from="C2B2" to="A3left3" type="passenger"/>
    <trip id="138" depart="39.69" from="D2C2.80.00" to="A3A4" type="passenger"/>
    <trip id="139" depart="39.79" from="D0D1.80.00" to="E2right2" type="passenger"/>
    <trip id="140" depart="40.04" from="C4C3.80.00" to="D2D1.80.00" type="passenger"/>
    <trip id="141" depart="40.34" from="C3B3.80.00" to="E0D0" type="passenger"/>
    <trip id="142" depart="40.94" from="left3A3.80.00" to="B2C2.80.00" type="passenger"/>
    <trip id="143" depart="41.02" from="C1D1" to="E3D3.80.00" type="passenger"/>
    <trip id="144" depart="41.06" from="right0E0.80.00" to="B1A1" type="passenger"/>
    <trip id="145" depart="41.17" from="A2A3" to="B0A0" type="passenger"/>
    <trip id="146" depart="41.24" from="right1E1.80.00" to="C4C3.80.00" type="passenger"/>
    <trip id="147" depart="41.74" from="A4A3.80.00" to="A1A2.80.00" type="passenger"/>
    <trip id="148" depart="42.74" from="D0D1" to="A2B2.80.00" type="passenger"/>
    <trip id="149" depart="42.74" from="C2C3.80.00" to="D0D1.80.00" type="passenger"/>
    <trip id="150" depart="42.78" from="B0A0" to="A1left1" type="passenger"/>
    <trip id="151" depart="43.00" from="A0B0.80.00" to="B1B0" type="passenger"/>
    <trip id="152" depart="43.85" from="left3A3" to="C3C4.80.00" type="passenger"/>
    <trip id="153" depart="44.12" from="E1D1.80.00" to="D1E1.80.00" type="passenger"/>
    <trip id="154" depart="44.30" from="D4E4" to="E2D2.80.00" type="passenger"/>
    <trip id="155" depart="44.36" from="C3D3.80.00" to="D1D0" type="passenger"/>
    <trip id="156" depart="44.67" from="A0B0" to="C0bottom2" type="passenger"/>
    <trip id="157" depart="45.03" from="D4C4.80.00" to="D3C3.80.00" type="passenger"/>
    <trip id="158" depart="45.04" from="D3D2.80.00" to="C1C0.80.00" type="passenger"/>
    <trip id="159" depart="45.20" from="left0A0.80.00" to="E2D2" type="passenger"/>
    <trip id="160" depart="45.47" from="D1D0" to="E2D2.80.00" type="passenger"/>
    <trip id="161" depart="46.18" from="B0B1.80.00" to="C0D0" type="passenger"/>
    <trip id="162" depart="46.45" from="B1B0" to="B4A4" type="passenger"/>
    <trip id="163" depart="46.89" from="B0B1.80.00" to="A3left3" type="passenger"/>
    <trip id="164" depart="47.42" from="left4A4" to="D0D1" type="passenger"/>
    <trip id="165" depart="47.42" from="B2B3.80.00" to="C4C3.80.00" type="passenger"/>
    <trip id="166" depart="47.53" from="A3A2.80.00" to="C0D0.80.00" type="passenger"/>
    <trip id="167" depart="47.81" from="A2A1" to="E1D1.80.00" type="passenger"/>
    <trip id="168" depart="47.83" from="C2C1.80.00" to="C3D3" type="passenger"/>
    <trip id="169" depart="48.00" from="E2D2" to="E2E1" type="passenger"/>
    <trip id="170" depart="48.55" from="C2D2.80.00" to="E4E3" type="passenger"/>
    <trip id="171" depart="48.69" from="B0C0" to="B1B0.80.00" type="passenger"/>
    <trip id="172" depart="48.84" from="B0A0.80.00" to="B2B1" type="passenger"/>
    <trip id="173" depart="48.88" from="E4D4" to="right1E1.80.00" type="passenger"/>
    <trip id="174" depart="48.88" from="B2A2" to="E4D4" type="passenger"/>
    <trip id="175" depart="49.12" from="E0E1.80.00" to="B3B4" type="passenger"/>
    <trip id="176" depart="49.34" from="bottom2C0.80.00" to="C2B2.80.00" type="passenger"/>
    <trip id="177" depart="49.38" from="B4B3" to="C2C1.80.00" type="passenger"/>
    <trip id="178" depart="50.15" from="E4D4.80.00" to="D4D3.80.00" type="passenger"/>
    <trip id="179" depart="50.22" from="A2B2" to="E3D3" type="passenger"/>
    <trip id="180" depart="50.74" from="D3E3.80.00" to="B0C0.80.00" type="passenger"/>
    <trip id="181" depart="51.06" from="D4D3.80.00" to="C0D0" type="passenger"/>
    <trip id="182" depart="51.15" from="D0D1" to="A4A3" type="passenger"/>
    <trip id="183" depart="51.36" from="D1D0" to="E1D1.80.00" type="passenger"/>
    <trip id="184" depart="51.50" from="right3E3.80.00" to="D4C4" type="passenger"/>
    <trip id="185" depart="52.02" from="C3C4.80.00" to="E3D3" type="passenger"/>
    <trip id="186" depart="52.25" from="B0A0.80.00" to="left3A3.80.00" type="passenger"/>
    <trip id="187" depart="52.30" from="D1D0.80.00" to="left0A0.80.00" type="passenger"/>
    <trip id="188" depart="53.13" from="D2D3.80.00" to="A3A4" type="passenger"/>
    <trip id="189" depart="53.34" from="B2B3" to="B2C2.80.00" type="passenger"/>
    <trip id="190" depart="53.42" from="D2E2" to="C2C3" type="passenger"/>
    <trip id="191" depart="53.84" from="E4D4" to="D2C2" type="passenger"/>
    <trip id="192" depart="53.94" from="B3C3" to="B0A0" type="passenger"/>
    <trip id="193" depart="54.14" from="E3D3" to="D3C3" type="passenger"/>
    <trip id="194" depart="54.14" from="bottom3D0.80.00" to="D1D0" type="passenger"/>
    <trip id="195" depart="54.15" from="D0E0.80.00" to="B4B3.80.00" type="passenger"/>
    <trip id="196" depart="54.17" from="B4C4.80.00" to="E0D0" type="passenger"/>
    <trip id="197" depart="54.22" from="D0E0.80.00" to="C2D2" type="passenger"/>
    <trip id="198" depart="54.31" from="right4E4" to="C2C1.80.00" type="passenger"/>
    <trip id="199" depart="54.74" from="D0D1" to="C2B2.80.00" type="passenger"/>
    <trip id="200" depart="55.03" from="top4E4.80.00" to="D4E4.80.00" type="passenger"/>
    <trip id="201" depart="55.30" from="D1C1.80.00" to="A2B2.80.00" type="passenger"/>
    <trip id="202" depart="55.36" from="left0A0" to="D0E0" type="passenger"/>
    <trip id="203" depart="55.78" from="B3B4.80.00" to="C1B1.80.00" type="passenger"/>
    <trip id="204" depart="55.90" from="D2C2" to="C0B0" type="passenger"/>
    <trip id="205" depart="56.55" from="C1D1" to="C2B2.80.00" type="passenger"/>
    <trip id="206" depart="56.66" from="C1C0" to="C2C1.80.00" type="passenger"/>
    <trip id="207" depart="56.81" from="A0B0.80.00" to="A0bottom0" type="passenger"/>
    <trip id="208" depart="58.02" from="C4D4.80.00" to="D3D4.80.00" type="passenger"/>
    <trip id="209" depart="58.05" from="D2D1.80.00" to="A1left1" type="passenger"/>
    <trip id="210" depart="58.41" from="D0E0" to="E0E1" type="passenger"/>
    <trip id="211" depart="58.45" from="E0E1" to="C0B0" type="passenger"/>
    <trip id="212" depart="58.50" from="right0E0" to="D0C0.80.00" type="passenger"/>
    <trip id="213" depart="58.51" from="top4E4.80.00" to="E0E1" type="passenger"/>
    <trip id="214" depart="58.82" from="C4B4" to="C2D2.80.00" type="passenger"/>
    <trip id="215" depart="58.90" from="right1E1.80.00" to="C2D2" type="passenger"/>
    <trip id="216" depart="59.27" from="B3A3" to="C0B0.80.00" type="passenger"/>
    <trip id="217" depart="59.43" from="left0A0.80.00" to="E0bottom4" type="passenger"/>
    <trip id="218" depart="59.56" from="D3D2" to="C3C2.80.00" type="passenger"/>
    <trip id="219" depart="59.76" from="A3B3" to="C0B0.80.00" type="passenger"/>
    <trip id="220" depart="59.91" from="D3D2" to="E1E2" type="passenger"/>
    <trip id="221" depart="60.16" from="C1C0.80.00" to="C3C2" type="passenger"/>
    <trip id="222" depart="60.38" from="B3B4" to="A3B3.80.00" type="passenger"/>
    <trip id="223" depart="60.79" from="D4E4" to="E2E3.80.00" type="passenger"/>
    <trip id="224" depart="61.15" from="B4C4" to="top4E4.80.00" type="passenger"/>
    <trip id="225" depart="61.30" from="C0D0.80.00" to="left2A2.80.00" type="passenger"/>
    <trip id="226" depart="61.31" from="E0E1.80.00" to="right0E0.80.00" type="passenger"/>
    <trip id="227" depart="61.58" from="D1C1" to="B3B2" type="passenger"/>
    <trip id="228" depart="61.78" from="C1B1" to="D0C0.80.00" type="passenger"/>
    <trip id="229" depart="62.04" from="E3D3.80.00" to="top3D4.80.00" type="passenger"/>
    <trip id="230" depart="62.10" from="D4C4" to="right0E0.80.00" type="passenger"/>
    <trip id="231" depart="62.49" from="right0E0.80.00" to="D3C3" type="passenger"/>
    <trip id="232" depart="62.53" from="C3C2.80.00" to="A1A2" type="passenger"/>
    <trip id="233" depart="62.58" from="top0A4.80.00" to="E1E2" type="passenger"/>
    <trip id="234" depart="62.71" from="A4B4.80.00" to="D3E3" type="passenger"/>
    <trip id="235" depart="62.75" from="bottom0A0.80.00" to="D0bottom3" type="passenger"/>
    <trip id="236" depart="63.10" from="D2D3.80.00" to="D4E4" type="passenger"/>
    <trip id="237" depart="63.18" from="bottom3D0" to="D1D0.80.00" type="passenger"/>
    <trip id="238" depart="63.31" from="E1E2" to="E4E3.80.00" type="passenger"/>
    <trip id="239" depart="64.45" from="B0A0" to="bottom3D0.80.00" type="passenger"/>
    <trip id="240" depart="64.48" from="D2D3" to="B3C3" type="passenger"/>
    <trip id="241" depart="64.74" from="D1C1" to="E0D0.80.00" type="passenger"/>
    <trip id="242" depart="65.23" from="D3D4" to="D4E4.80.00" type="passenger"/>
    <trip id="243" depart="65.91" from="B3C3.80.00" to="A2A1" type="passenger"/>
    <trip id="244" depart="66.53" from="left3A3.80.00" to="top0A4.80.00" type="passenger"/>
    <trip id="245" depart="66.62" from="B1B2.80.00" to="E4E3" type="passenger"/>
    <trip id="246" depart="67.02" from="D2D1.80.00" to="E4top4" type="passenger"/>
    <trip id="247" depart="67.20" from="A3B3.80.00" to="left3A3.80.00" type="passenger"/>
    <trip id="248" depart="68.13" from="A2A3" to="C2C3.80.00" type="passenger"/>
    <trip id="249" depart="68.20" from="D2D3" to="B4C4" type="passenger"/>
    <trip id="250" depart="68.22" from="A1A2.80.00" to="D3C3" type="passenger"/>
    <trip id="251" depart="69.03" from="A2A1" to="A3B3" type="passenger"/>
    <trip id="252" depart="69.15" from="bottom0A0" to="C4D4.80.00" type="passenger"/>
    <trip id="253" depart="69.24" from="A3A2.80.00" to="D0D1" type="passenger"/>
    <trip id="254" depart="69.30" from="C3C2" to="D4C4.80.00" type="passenger"/>
    <trip id="255" depart="69.51" from="bottom3D0" to="left0A0.80.00" type="passenger"/>
    <trip id="256" depart="69.84" from="E2D2.80.00" to="E3right3" type="passenger"/>
    <trip id="257" depart="69.94" from="B1B2" to="D1C1.80.00" type="passenger"/>
    <trip id="258" depart="70.15" from="B2B1" to="C4D4.80.00" type="passenger"/>
    <trip id="259" depart="70.18" from="B2C2.80.00" to="top0A4.80.00" type="passenger"/>
    <trip id="260" depart="70.25" from="C2D2.80.00" to="A1B1.80.00" type="passenger"/>
    <trip id="261" depart="70.26" from="B3B4" to="A4top0" type="passenger"/>
    <trip id="262" depart="70.33" from="E1E0.80.00" to="B4C4" type="passenger"/>
    <trip id="263" depart="70.53" from="E0E1" to="C2D2" type="passenger"/>
    <trip id="264" depart="72.31" from="A1A0.80.00" to="E4E3" type="passenger"/>
    <trip id="265" depart="72.60" from="left4A4" to="C2C3.80.00" type="passenger"/>
    <trip id="266" depart="73.18" from="A0A1.80.00" to="B2B3.80.00" type="passenger"/>
    <trip id="267" depart="73.40" from="B4A4.80.00" to="bottom3D0.80.00" type="passenger"/>
    <trip id="268" depart="73.73" from="D1D0.80.00" to="D2D1.80.00" type="passenger"/>
    <trip id="269" depart="73.86" from="D3E3" to="D0C0" type="passenger"/>
    <trip id="270" depart="73.97" from="A1A0.80.00" to="C2D2.80.00" type="passenger"/>
    <trip id="271" depart="74.71" from="C2C1.80.00" to="B3C3" type="passenger"/>
    <trip id="272" depart="75.39" from="B3B4" to="A3A2" type="passenger"/>
    <trip id="273" depart="75.54" from="bottom2C0.80.00" to="B0A0.80.00" type="passenger"/>
    <trip id="274" depart="75.67" from="B3C3" to="A2A1.80.00" type="passenger"/>
    <trip id="275" depart="75.82" from="left4A4" to="C4D4" type="passenger"/>
    <trip id="276" depart="76.07" from="B2C2.80.00" to="C4D4.80.00" type="passenger"/>
    <trip id="277" depart="76.26" from="C2B2" to="E0E1.80.00" type="passenger"/>
    <trip id="278" depart="76.33" from="A0B0" to="D2D1.80.00" type="passenger"/>
    <trip id="279" depart="76.63" from="B3B2" to="top1B4.80.00" type="passenger"/>
    <trip id="280" depart="76.78" from="C2B2.80.00" to="B2A2" type="passenger"/>
    <trip id="281" depart="77.12" from="A3A2.80.00" to="E3E2" type="passenger"/>
    <trip id="282" depart="77.64" from="D0E0.80.00" to="D2D1" type="passenger"/>
    <trip id="283" depart="77.91" from="C0B0.80.00" to="C0D0.80.00" type="passenger"/>
    <trip id="284" depart="78.01" from="top1B4.80.00" to="B1B0" type="passenger"/>
    <trip id="285" depart="78.46" from="B1C1" to="D4D3.80.00" type="passenger"/>
    <trip id="286" depart="78.56" from="A0B0.80.00" to="E2E1.80.00" type="passenger"/>
    <trip id="287" depart="78.86" from="D3D2.80.00" to="A2B2" type="passenger"/>
    <trip id="288" depart="78.90" from="C4B4.80.00" to="B4A4.80.00" type="passenger"/>
    <trip id="289" depart="79.54" from="C1C0.80.00" to="C0D0.80.00" type="passenger"/>
    <trip id="290" depart="79.74" from="right3E3" to="C2C1" type="passenger"/>
    <trip id="291" depart="79.83" from="D1D0.80.00" to="C0D0" type="passenger"/>
    <trip id="292" depart="79.90" from="bottom2C0" to="right1E1.80.00" type="passenger"/>
    <trip id="293" depart="79.90" from="E2E1" to="C3B3" type="passenger"/>
    <trip id="294" depart="80.26" from="C2C3" to="right3E3.80.00" type="passenger"/>
    <trip id="295" depart="81.16" from="D1C1" to="D4C4.80.00" type="passenger"/>
    <trip id="296" depart="81.47" from="D2E2" to="B1A1.80.00" type="passenger"/>
    <trip id="297" depart="81.51" from="D4C4" to="D0D1.80.00" type="passenger"/>
    <trip id="298" depart="81.54" from="C3C2.80.00" to="D1E1.80.00" type="passenger"/>
    <trip id="299" depart="81.58" from="B3C3.80.00" to="E2E1.80.00" type="passenger"/>
    <trip id="300" depart="81.74" from="right0E0.80.00" to="top0A4.80.00" type="passenger"/>
    <trip id="301" depart="81.76" from="E1E2.80.00" to="C1D1.80.00" type="passenger"/>
    <trip id="302" depart="82.05" from="B2B1.80.00" to="B4B3" type="passenger"/>
    <trip id="303" depart="83.02" from="top4E4.80.00" to="E1right1" type="passenger"/>
    <trip id="304" depart="83.47" from="top0A4.80.00" to="top3D4.80.00" type="passenger"/>
    <trip id="305" depart="83.70" from="C0B0" to="left3A3.80.00" type="passenger"/>
    <trip id="306" depart="83.78" from="C4B4.80.00" to="D3E3.80.00" type="passenger"/>
    <trip id="307" depart="83.88" from="B0B1" to="B1B0" type="passenger"/>
    <trip id="308" depart="84.37" from="top1B4.80.00" to="B0A0.80.00" type="passenger"/>
    <trip id="309" depart="84.50" from="right1E1.80.00" to="A0A1.80.00" type="passenger"/>
    <trip id="310" depart="84.70" from="C1D1.80.00" to="right2E2.80.00" type="passenger"/>
    <trip id="311" depart="84.78" from="E2D2.80.00" to="E4top4" type="passenger"/>
    <trip id="312" depart="85.55" from="left2A2" to="B4C4.80.00" type="passenger"/>
    <trip id="313" depart="85.86" from="C2D2.80.00" to="B3C3.80.00" type="passenger"/>
    <trip id="314" depart="86.04" from="B3B4.80.00" to="D4D3.80.00" type="passenger"/>
    <trip id="315" depart="87.40" from="D2E2.80.00" to="D3D4" type="passenger"/>
    <trip id="316" depart="88.11" from="C1D1.80.00" to="D0D1" type="passenger"/>
    <trip id="317" depart="88.52" from="right1E1.80.00" to="E1E0.80.00" type="passenger"/>
    <trip id="318" depart="88.62" from="D2E2" to="D3E3.80.00" type="passenger"/>
    <trip id="319" depart="89.19" from="D3E3" to="A4top0" type="passenger"/>
    <trip id="320" depart="89.28" from="B0A0.80.00" to="A0A1.80.00" type="passenger"/>
    <trip id="321" depart="89.70" from="B1B0" to="A2A3" type="passenger"/>
    <trip id="322" depart="90.42" from="A1A0.80.00" to="C0D0.80.00" type="passenger"/>
    <trip id="323" depart="90.45" from="D4E4" to="B3B4.80.00" type="passenger"/>
    <trip id="324" depart="90.67" from="D0C0.80.00" to="B4B3.80.00" type="passenger"/>
    <trip id="325" depart="90.85" from="C4C3" to="B3A3" type="passenger"/>
    <trip id="326" depart="90.95" from="B2C2" to="A3left3" type="passenger"/>
    <trip id="327" depart="91.02" from="A2A1.80.00" to="D3D2" type="passenger"/>
    <trip id="328" depart="91.30" from="C0D0" to="B1B2.80.00" type="passenger"/>
    <trip id="329" depart="92.18" from="D1C1.80.00" to="left4A4.80.00" type="passenger"/>
    <trip id="330" depart="92.27" from="D0E0" to="E1E2" type="passenger"/>
    <trip id="331" depart="92.77" from="C3D3" to="B2A2" type="passenger"/>
    <trip id="332" depart="92.79" from="B4A4" to="D2D3" type="passenger"/>
    <trip id="333" depart="92.80" from="left0A0.80.00" to="bottom0A0.80.00" type="passenger"/>
    <trip id="334" depart="93.02" from="E3E4" to="right0E0.80.00" type="passenger"/>
    <trip id="335" depart="93.06" from="B1B0" to="C3D3.80.00" type="passenger"/>
    <trip id="336" depart="93.42" from="D2E2.80.00" to="B1B2.80.00" type="passenger"/>
    <trip id="337" depart="93.78" from="D3C3.80.00" to="B4C4" type="passenger"/>
    <trip id="338" depart="93.91" from="bottom4E0.80.00" to="D0C0" type="passenger"/>
    <trip id="339" depart="93.91" from="bottom3D0.80.00" to="top4E4.80.00" type="passenger"/>
    <trip id="340" depart="93.99" from="D3D2.80.00" to="A4top0" type="passenger"/>
    <trip id="341" depart="93.99" from="E1E0" to="B3B4" type="passenger"/>
    <trip id="342" depart="95.15" from="D3C3" to="C4D4.80.00" type="passenger"/>
    <trip id="343" depart="95.46" from="B4C4.80.00" to="right1E1.80.00" type="passenger"/>
    <trip id="344" depart="96.77" from="D2D1" to="A0A1" type="passenger"/>
    <trip id="345" depart="96.99" from="C0D0.80.00" to="E1D1" type="passenger"/>
    <trip id="346" depart="97.43" from="B3B2.80.00" to="D4D3.80.00" type="passenger"/>
    <trip id="347" depart="97.43" from="left0A0" to="D0D1" type="passenger"/>
    <trip id="348" depart="97.60" from="D4E4" to="B0bottom1" type="passenger"/>
    <trip id="349" depart="97.74" from="C4B4.80.00" to="C2C3.80.00" type="passenger"/>
    <trip id="350" depart="97.88" from="top3D4.80.00" to="right3E3.80.00" type="passenger"/>
    <trip id="351" depart="97.97" from="B0A0.80.00" to="C3C2" type="passenger"/>
    <trip id="352" depart="98.30" from="C4C3.80.00" to="B3A3" type="passenger"/>