<?xml version="1.0" encoding="UTF-8"?>

<!-- generated on 2023-04-26 16:57:05.933929 by randomTrips.py UNKNOWN
<configuration>
    <begin value="0"/>
    <end value="900"/>
    <insertion-rate value="8000.0"/>
    <net-file value="/home/franky3er/Documents/code/HieraGLight/scenarios/grid/1x1-500m/train/78-scenario/network.net.xml"/>
    <random value="True"/>
    <random-depart value="True"/>
    <route-file value="/home/franky3er/Documents/code/HieraGLight/scenarios/grid/1x1-500m/train/78-scenario/routes.rou.xml"/>
    <seed value="78"/>
    <output-trip-file value="/home/franky3er/Documents/code/HieraGLight/scenarios/grid/1x1-500m/train/78-scenario/trips.trips.xml"/>
    <vehicle-class value="passenger"/>
</configuration>
-->

<routes xmlns:xsi="http://www.w3.org/2001/XMLSchema-instance" xsi:noNamespaceSchemaLocation="http://sumo.dlr.de/xsd/routes_file.xsd">
    <vType id="passenger" vClass="passenger"/>
    <trip id="0" depart="0.75" from="right0A0" to="A0top0" type="passenger"/>
    <trip id="1" depart="0.80" from="bottom0A0.250.00" to="A0bottom0" type="passenger"/>
    <trip id="2" depart="1.10" from="left0A0.250.00" to="A0top0" type="passenger"/>
    <trip id="3" depart="1.20" from="left0A0" to="left0A0.250.00" type="passenger"/>
    <trip id="4" depart="1.35" from="bottom0A0.250.00" to="A0top0" type="passenger"/>
    <trip id="5" depart="1.75" from="right0A0.250.00" to="A0right0" type="passenger"/>
    <trip id="6" depart="2.05" from="bottom0A0.250.00" to="A0bottom0" type="passenger"/>
    <trip id="7" depart="2.15" from="left0A0.250.00" to="A0left0" type="passenger"/>
    <trip id="8" depart="2.20" from="left0A0.250.00" to="A0bottom0" type="passenger"/>
    <trip id="9" depart="3.85" from="top0A0" to="right0A0.250.00" type="passenger"/>
    <trip id="10" depart="3.90" from="left0A0.250.00" to="A0left0" type="passenger"/>
    <trip id="11" depart="4.30" from="bottom0A0.250.00" to="bottom0A0.250.00" type="passenger"/>
    <trip id="12" depart="4.65" from="left0A0" to="top0A0.250.00" type="passenger"/>
    <trip id="13" depart="4.90" from="left0A0" to="A0top0" type="passenger"/>
    <trip id="14" depart="5.15" from="bottom0A0.250.00" to="A0bottom0" type="passenger"/>
    <trip id="15" depart="5.20" from="top0A0" to="A0left0" type="passenger"/>
    <trip id="16" depart="5.50" from="top0A0.250.00" to="A0top0" type="passenger"/>
    <trip id="17" depart="5.70" from="left0A0.250.00" to="A0left0" type="passenger"/>
    <trip id="18" depart="6.35" from="right0A0.250.00" to="bottom0A0.250.00" type="passenger"/>
    <trip id="19" depart="6.85" from="left0A0" to="A0left0" type="passenger"/>
    <trip id="20" depart="7.55" from="right0A0" to="top0A0.250.00" type="passenger"/>
    <trip id="21" depart="8.25" from="top0A0" to="left0A0.250.00" type="passenger"/>
    <trip id="22" depart="8.90" from="right0A0" to="left0A0.250.00" type="passenger"/>
    <trip id="23" depart="9.05" from="top0A0" to="top0A0.250.00" type="passenger"/>
    <trip id="24" depart="9.50" from="right0A0.250.00" to="A0right0" type="passenger"/>
    <trip id="25" depart="9.85" from="top0A0.250.00" to="A0bottom0" type="passenger"/>
    <trip id="26" depart="10.70" from="top0A0.250.00" to="A0bottom0" type="passenger"/>
    <trip id="27" depart="11.30" from="bottom0A0.250.00" to="A0right0" type="passenger"/>
    <trip id="28" depart="11.40" from="left0A0" to="bottom0A0.250.00" type="passenger"/>
    <trip id="29" depart="11.70" from="bottom0A0" to="top0A0.250.00" type="passenger"/>
    <trip id="30" depart="11.75" from="top0A0" to="A0right0" type="passenger"/>
    <trip id="31" depart="13.90" from="right0A0.250.00" to="left0A0.250.00" type="passenger"/>
    <trip id="32" depart="14.40" from="left0A0.250.00" to="A0bottom0" type="passenger"/>
    <trip id="33" depart="14.55" from="right0A0" to="A0top0" type="passenger"/>
    <trip id="34" depart="14.65" from="bottom0A0" to="bottom0A0.250.00" type="passenger"/>
    <trip id="35" depart="15.55" from="left0A0.250.00" to="top0A0.250.00" type="passenger"/>
    <trip id="36" depart="15.75" from="right0A0.250.00" to="bottom0A0.250.00" type="passenger"/>
    <trip id="37" depart="17.15" from="left0A0.250.00" to="right0A0.250.00" type="passenger"/>
    <trip id="38" depart="17.55" from="bottom0A0" to="A0top0" type="passenger"/>
    <trip id="39" depart="17.85" from="left0A0.250.00" to="A0top0" type="passenger"/>
    <trip id="40" depart="17.90" from="right0A0.250.00" to="A0bottom0" type="passenger"/>
    <trip id="41" depart="18.30" from="left0A0.250.00" to="left0A0.250.00" type="passenger"/>
    <trip id="42" depart="18.40" from="top0A0.250.00" to="left0A0.250.00" type="passenger"/>
    <trip id="43" depart="19.10" from="right0A0.250.00" to="A0bottom0" type="passenger"/>
    <trip id="44" depart="20.35" from="top0A0.250.00" to="A0top0" type="passenger"/>
    <trip id="45" depart="21.35" from="right0A0" to="A0bottom0" type="passenger"/>
    <trip id="46" depart="21.80" from="top0A0.250.00" to="A0top0" type="passenger"/>
    <trip id="47" depart="22.15" from="left0A0.250.00" to="right0A0.250.00" type="passenger"/>
    <trip id="48" depart="22.20" from="top0A0" to="A0left0" type="passenger"/>
    <trip id="49" depart="22.30" from="bottom0A0" to="A0right0" type="passenger"/>
    <trip id="50" depart="23.45" from="left0A0" to="A0right0" type="passenger"/>
    <trip id="51" depart="23.45" from="top0A0" to="A0right0" type="passenger"/>
    <trip id="52" depart="23.50" from="right0A0" to="bottom0A0.250.00" type="passenger"/>
    <trip id="53" depart="25.45" from="left0A0.250.00" to="bottom0A0.250.00" type="passenger"/>
    <trip id="54" depart="26.75" from="bottom0A0" to="bottom0A0.250.00" type="passenger"/>
    <trip id="55" depart="26.80" from="top0A0" to="bottom0A0.250.00" type="passenger"/>
    <trip id="56" depart="26.90" from="right0A0.250.00" to="A0left0" type="passenger"/>
    <trip id="57" depart="27.50" from="left0A0" to="top0A0.250.00" type="passenger"/>
    <trip id="58" depart="28.35" from="top0A0" to="left0A0.250.00" type="passenger"/>
    <trip id="59" depart="29.50" from="top0A0.250.00" to="A0right0" type="passenger"/>
    <trip id="60" depart="30.10" from="bottom0A0.250.00" to="A0top0" type="passenger"/>
    <trip id="61" depart="30.35" from="right0A0" to="top0A0.250.00" type="passenger"/>
    <trip id="62" depart="30.95" from="top0A0" to="top0A0.250.00" type="passenger"/>
    <trip id="63" depart="31.95" from="top0A0.250.00" to="A0right0" type="passenger"/>
    <trip id="64" depart="32.85" from="right0A0" to="right0A0.250.00" type="passenger"/>
    <trip id="65" depart="33.00" from="right0A0" to="A0top0" type="passenger"/>
    <trip id="66" depart="33.10" from="top0A0" to="right0A0.250.00" type="passenger"/>
    <trip id="67" depart="33.60" from="bottom0A0.250.00" to="A0right0" type="passenger"/>
    <trip id="68" depart="33.65" from="left0A0" to="right0A0.250.00" type="passenger"/>
    <trip id="69" depart="34.55" from="bottom0A0.250.00" to="left0A0.250.00" type="passenger"/>
    <trip id="70" depart="35.35" from="right0A0.250.00" to="bottom0A0.250.00" type="passenger"/>
    <trip id="71" depart="35.55" from="bottom0A0.250.00" to="A0right0" type="passenger"/>
    <trip id="72" depart="36.70" from="right0A0" to="A0bottom0" type="passenger"/>
    <trip id="73" depart="37.10" from="top0A0.250.00" to="left0A0.250.00" type="passenger"/>
    <trip id="74" depart="37.15" from="left0A0.250.00" to="top0A0.250.00" type="passenger"/>
    <trip id="75" depart="37.45" from="right0A0.250.00" to="right0A0.250.00" type="passenger"/>
    <trip id="76" depart="39.35" from="right0A0" to="bottom0A0.250.00" type="passenger"/>
    <trip id="77" depart="39.85" from="top0A0" to="left0A0.250.00" type="passenger"/>
    <trip id="78" depart="40.20" from="bottom0A0.250.00" to="A0left0" type="passenger"/>
    <trip id="79" depart="40.50" from="top0A0" to="A0right0" type="passenger"/>
    <trip id="80" depart="41.05" from="bottom0A0.250.00" to="left0A0.250.00" type="passenger"/>
    <trip id="81" depart="41.25" from="top0A0" to="left0A0.250.00" type="passenger"/>
    <trip id="82" depart="41.45" from="top0A0.250.00" to="A0top0" type="passenger"/>
    <trip id="83" depart="41.60" from="left0A0" to="bottom0A0.250.00" type="passenger"/>
    <trip id="84" depart="42.75" from="bottom0A0.250.00" to="bottom0A0.250.00" type="passenger"/>
    <trip id="85" depart="42.95" from="right0A0" to="top0A0.250.00" type="passenger"/>
    <trip id="86" depart="43.05" from="right0A0" to="right0A0.250.00" type="passenger"/>
    <trip id="87" depart="43.25" from="top0A0" to="A0right0" type="passenger"/>
    <trip id="88" depart="43.60" from="right0A0.250.00" to="A0bottom0" type="passenger"/>
    <trip id="89" depart="43.65" from="top0A0.250.00" to="top0A0.250.00" type="passenger"/>
    <trip id="90" depart="43.95" from="bottom0A0.250.00" to="A0top0" type="passenger"/>
    <trip id="91" depart="45.65" from="bottom0A0.250.00" to="top0A0.250.00" type="passenger"/>
    <trip id="92" depart="45.80" from="left0A0" to="A0bottom0" type="passenger"/>
    <trip id="93" depart="46.35" from="top0A0.250.00" to="top0A0.250.00" type="passenger"/>
    <trip id="94" depart="47.10" from="bottom0A0" to="A0top0" type="passenger"/>
    <trip id="95" depart="47.20" from="left0A0" to="A0top0" type="passenger"/>
    <trip id="96" depart="48.05" from="bottom0A0" to="A0top0" type="passenger"/>
    <trip id="97" depart="48.25" from="bottom0A0.250.00" to="A0right0" type="passenger"/>
    <trip id="98" depart="48.30" from="bottom0A0.250.00" to="top0A0.250.00" type="passenger"/>
    <trip id="99" depart="48.85" from="bottom0A0.250.00" to="top0A0.250.00" type="passenger"/>
    <trip id="100" depart="49.05" from="right0A0.250.00" to="A0bottom0" type="passenger"/>
    <trip id="101" depart="49.95" from="right0A0.250.00" to="top0A0.250.00" type="passenger"/>
    <trip id="102" depart="49.95" from="bottom0A0" to="right0A0.250.00" type="passenger"/>
    <trip id="103" depart="49.95" from="right0A0.250.00" to="bottom0A0.250.00" type="passenger"/>
    <trip id="104" depart="50.25" from="bottom0A0.250.00" to="A0top0" type="passenger"/>
    <trip id="105" depart="50.45" from="top0A0.250.00" to="A0right0" type="passenger"/>
    <trip id="106" depart="50.60" from="bottom0A0.250.00" to="bottom0A0.250.00" type="passenger"/>
    <trip id="107" depart="50.75" from="bottom0A0" to="right0A0.250.00" type="passenger"/>
    <trip id="108" depart="51.15" from="bottom0A0" to="A0right0" type="passenger"/>
    <trip id="109" depart="51.80" from="top0A0.250.00" to="top0A0.250.00" type="passenger"/>
    <trip id="110" depart="52.45" from="right0A0" to="bottom0A0.250.00" type="passenger"/>
    <trip id="111" depart="52.55" from="right0A0.250.00" to="right0A0.250.00" type="passenger"/>
    <trip id="112" depart="52.65" from="left0A0" to="left0A0.250.00" type="passenger"/>
    <trip id="113" depart="52.80" from="top0A0.250.00" to="top0A0.250.00" type="passenger"/>
    <trip id="114" depart="53.20" from="right0A0.250.00" to="top0A0.250.00" type="passenger"/>
    <trip id="115" depart="53.25" from="left0A0" to="A0right0" type="passenger"/>
    <trip id="116" depart="53.40" from="right0A0.250.00" to="A0right0" type="passenger"/>
    <trip id="117" depart="53.85" from="left0A0" to="right0A0.250.00" type="passenger"/>
    <trip id="118" depart="54.55" from="left0A0" to="A0bottom0" type="passenger"/>
    <trip id="119" depart="54.75" from="right0A0" to="A0right0" type="passenger"/>
    <trip id="120" depart="55.30" from="bottom0A0" to="A0bottom0" type="passenger"/>
    <trip id="121" depart="55.45" from="right0A0.250.00" to="A0bottom0" type="passenger"/>
    <trip id="122" depart="55.50" from="top0A0.250.00" to="A0left0" type="passenger"/>
    <trip id="123" depart="55.75" from="bottom0A0.250.00" to="right0A0.250.00" type="passenger"/>
    <trip id="124" depart="56.05" from="left0A0.250.00" to="right0A0.250.00" type="passenger"/>
    <trip id="125" depart="56.35" from="bottom0A0" to="A0top0" type="passenger"/>
    <trip id="126" depart="56.75" from="top0A0.250.00" to="top0A0.250.00" type="passenger"/>
    <trip id="127" depart="57.50" from="top0A0.250.00" to="A0left0" type="passenger"/>
    <trip id="128" depart="58.30" from="top0A0.250.00" to="A0bottom0" type="passenger"/>
    <trip id="129" depart="59.10" from="bottom0A0.250.00" to="A0right0" type="passenger"/>
    <trip id="130" depart="59.75" from="left0A0.250.00" to="A0left0" type="passenger"/>
    <trip id="131" depart="60.60" from="left0A0" to="top0A0.250.00" type="passenger"/>
    <trip id="132" depart="61.05" from="top0A0" to="A0bottom0" type="passenger"/>
    <trip id="133" depart="62.00" from="left0A0.250.00" to="bottom0A0.250.00" type="passenger"/>
    <trip id="134" depart="62.15" from="top0A0.250.00" to="left0A0.250.00" type="passenger"/>
    <trip id="135" depart="63.00" from="top0A0.250.00" to="right0A0.250.00" type="passenger"/>
    <trip id="136" depart="63.05" from="right0A0.250.00" to="A0left0" type="passenger"/>
    <trip id="137" depart="63.45" from="left0A0" to="right0A0.250.00" type="passenger"/>
    <trip id="138" depart="63.70" from="top0A0.250.00" to="top0A0.250.00" type="passenger"/>
    <trip id="139" depart="64.20" from="top0A0.250.00" to="top0A0.250.00" type="passenger"/>
    <trip id="140" depart="64.20" from="top0A0" to="right0A0.250.00" type="passenger"/>
    <trip id="141" depart="65.10" from="left0A0.250.00" to="bottom0A0.250.00" type="passenger"/>
    <trip id="142" depart="65.35" from="left0A0" to="left0A0.250.00" type="passenger"/>
    <trip id="143" depart="65.65" from="top0A0" to="right0A0.250.00" type="passenger"/>
    <trip id="144" depart="65.65" from="left0A0" to="A0top0" type="passenger"/>
    <trip id="145" depart="66.05" from="top0A0" to="left0A0.250.00" type="passenger"/>
    <trip id="146" depart="66.55" from="right0A0.250.00" to="A0top0" type="passenger"/>
    <trip id="147" depart="67.10" from="right0A0.250.00" to="right0A0.250.00" type="passenger"/>
    <trip id="148" depart="67.65" from="left0A0" to="A0bottom0" type="passenger"/>
    <trip id="149" depart="67.65" from="bottom0A0" to="top0A0.250.00" type="passenger"/>
    <trip id="150" depart="67.70" from="top0A0" to="right0A0.250.00" type="passenger"/>
    <trip id="151" depart="68.25" from="top0A0" to="A0top0" type="passenger"/>
    <trip id="152" depart="68.45" from="right0A0.250.00" to="right0A0.250.00" type="passenger"/>
    <trip id="153" depart="69.05" from="left0A0" to="A0right0" type="passenger"/>
    <trip id="154" depart="69.10" from="bottom0A0" to="bottom0A0.250.00" type="passenger"/>
    <trip id="155" depart="69.35" from="top0A0.250.00" to="A0bottom0" type="passenger"/>
    <trip id="156" depart="71.00" from="right0A0" to="left0A0.250.00" type="passenger"/>
    <trip id="157" depart="71.00" from="bottom0A0" to="A0left0" type="passenger"/>
    <trip id="158" depart="72.55" from="right0A0" to="A0left0" type="passenger"/>
    <trip id="159" depart="72.65" from="right0A0.250.00" to="bottom0A0.250.00" type="passenger"/>
    <trip id="160" depart="72.80" from="right0A0.250.00" to="top0A0.250.00" type="passenger"/>
    <trip id="161" depart="72.95" from="left0A0.250.00" to="top0A0.250.00" type="passenger"/>
    <trip id="162" depart="73.15" from="bottom0A0" to="bottom0A0.250.00" type="passenger"/>
    <trip id="163" depart="73.60" from="top0A0" to="left0A0.250.00" type="passenger"/>
    <trip id="164" depart="74.20" from="left0A0" to="left0A0.250.00" type="passenger"/>
    <trip id="165" depart="74.80" from="right0A0.250.00" to="A0left0" type="passenger"/>
    <trip id="166" depart="75.00" from="top0A0.250.00" to="A0bottom0" type="passenger"/>
    <trip id="167" depart="75.95" from="bottom0A0.250.00" to="left0A0.250.00" type="passenger"/>
    <trip id="168" depart="76.10" from="top0A0.250.00" to="right0A0.250.00" type="passenger"/>
    <trip id="169" depart="76.60" from="top0A0.250.00" to="top0A0.250.00" type="passenger"/>
    <trip id="170" depart="76.70" from="top0A0.250.00" to="A0bottom0" type="passenger"/>
    <trip id="171" depart="76.75" from="left0A0" to="right0A0.250.00" type="passenger"/>
    <trip id="172" depart="76.80" from="left0A0.250.00" to="right0A0.250.00" type="passenger"/>
    <trip id="173" depart="77.55" from="bottom0A0.250.00" to="A0bottom0" type="passenger"/>
    <trip id="174" depart="77.60" from="left0A0.250.00" to="A0left0" type="passenger"/>
    <trip id="175" depart="78.25" from="bottom0A0" to="left0A0.250.00" type="passenger"/>
    <trip id="176" depart="78.70" from="top0A0" to="A0top0" type="passenger"/>
    <trip id="177" depart="78.70" from="right0A0.250.00" to="A0top0" type="passenger"/>
    <trip id="178" depart="80.40" from="bottom0A0.250.00" to="A0top0" type="passenger"/>
    <trip id="179" depart="82.10" from="top0A0.250.00" to="right0A0.250.00" type="passenger"/>
    <trip id="180" depart="82.35" from="top0A0" to="A0right0" type="passenger"/>
    <trip id="181" depart="83.15" from="left0A0.250.00" to="bottom0A0.250.00" type="passenger"/>
    <trip id="182" depart="83.70" from="right0A0" to="A0left0" type="passenger"/>
    <trip id="183" depart="83.85" from="bottom0A0" to="A0bottom0" type="passenger"/>
    <trip id="184" depart="84.45" from="right0A0.250.00" to="A0right0" type="passenger"/>
    <trip id="185" depart="85.70" from="right0A0" to="A0top0" type="passenger"/>
    <trip id="186" depart="86.05" from="right0A0" to="A0left0" type="passenger"/>
    <trip id="187" depart="86.20" from="right0A0.250.00" to="A0left0" type="passenger"/>
    <trip id="188" depart="86.50" from="bottom0A0.250.00" to="A0left0" type="passenger"/>
    <trip id="189" depart="87.15" from="right0A0" to="A0right0" type="passenger"/>
    <trip id="190" depart="88.30" from="bottom0A0" to="A0left0" type="passenger"/>
    <trip id="191" depart="88.60" from="left0A0.250.00" to="bottom0A0.250.00" type="passenger"/>
    <trip id="192" depart="89.05" from="left0A0.250.00" to="A0left0" type="passenger"/>
    <trip id="193" depart="89.65" from="right0A0.250.00" to="A0right0" type="passenger"/>
    <trip id="194" depart="89.70" from="bottom0A0.250.00" to="left0A0.250.00" type="passenger"/>
    <trip id="195" depart="90.30" from="right0A0" to="right0A0.250.00" type="passenger"/>
    <trip id="196" depart="90.70" from="top0A0.250.00" to="bottom0A0.250.00" type="passenger"/>
    <trip id="197" depart="91.05" from="right0A0" to="left0A0.250.00" type="passenger"/>
    <trip id="198" depart="93.40" from="right0A0.250.00" to="A0left0" type="passenger"/>
    <trip id="199" depart="94.40" from="bottom0A0" to="A0right0" type="passenger"/>
    <trip id="200" depart="94.55" from="left0A0.250.00" to="bottom0A0.250.00" type="passenger"/>
    <trip id="201" depart="95.45" from="right0A0.250.00" to="A0bottom0" type="passenger"/>
    <trip id="202" depart="95.45" from="right0A0" to="A0right0" type="passenger"/>
    <trip id="203" depart="95.50" from="right0A0.250.00" to="A0right0" type="passenger"/>
    <trip id="204" depart="95.75" from="bottom0A0" to="A0top0" type="passenger"/>
    <trip id="205" depart="96.65" from="bottom0A0" to="right0A0.250.00" type="passenger"/>
    <trip id="206" depart="96.95" from="left0A0" to="right0A0.250.00" type="passenger"/>
    <trip id="207" depart="97.15" from="right0A0.250.00" to="A0left0" type="passenger"/>
    <trip id="208" depart="97.70" from="top0A0.250.00" to="A0bottom0" type="passenger"/>
    <trip id="209" depart="97.85" from="top0A0.250.00" to="A0top0" type="passenger"/>
    <trip id="210" depart="98.25" from="left0A0.250.00" to="A0left0" type="passenger"/>
    <trip id="211" depart="98.65" from="bottom0A0" to="bottom0A0.250.00" type="passenger"/>
    <trip id="212" depart="98.80" from="bottom0A0.250.00" to="A0left0" type="passenger"/>
    <trip id="213" depart="99.00" from="top0A0.250.00" to="bottom0A0.250.00" type="passenger"/>
    <trip id="214" depart="99.05" from="bottom0A0.250.00" to="A0top0" type="passenger"/>
    <trip id="215" depart="99.15" from="bottom0A0" to="right0A0.250.00" type="passenger"/>
    <trip id="216" depart="99.45" from="top0A0.250.00" to="A0bottom0" type="passenger"/>
    <trip id="217" depart="99.45" from="bottom0A0" to="bottom0A0.250.00" type="passenger"/>
    <trip id="218" depart="100.50" from="right0A0.250.00" to="A0top0" type="passenger"/>
    <trip id="219" depart="100.55" from="right0A0" to="right0A0.250.00" type="passenger"/>
    <trip id="220" depart="101.45" from="left0A0" to="bottom0A0.250.00" type="passenger"/>
    <trip id="221" depart="101.90" from="bottom0A0" to="left0A0.250.00" type="passenger"/>
    <trip id="222" depart="102.15" from="bottom0A0.250.00" to="top0A0.250.00" type="passenger"/>
    <trip id="223" depart="102.60" from="top0A0" to="top0A0.250.00" type="passenger"/>
    <trip id="224" depart="102.85" from="top0A0.250.00" to="left0A0.250.00" type="passenger"/>
    <trip id="225" depart="103.40" from="right0A0.250.00" to="A0top0" type="passenger"/>
    <trip id="226" depart="104.20" from="bottom0A0" to="right0A0.250.00" type="passenger"/>
    <trip id="227" depart="104.65" from="right0A0.250.00" to="top0A0.250.00" type="passenger"/>
    <trip id="228" depart="105.20" from="left0A0" to="bottom0A0.250.00" type="passenger"/>
    <trip id="229" depart="106.05" from="bottom0A0" to="left0A0.250.00" type="passenger"/>
    <trip id="230" depart="106.15" from="bottom0A0.250.00" to="right0A0.250.00" type="passenger"/>
    <trip id="231" depart="106.40" from="right0A0" to="bottom0A0.250.00" type="passenger"/>
    <trip id="232" depart="106.40" from="left0A0.250.00" to="right0A0.250.00" type="passenger"/>
    <trip id="233" depart="106.65" from="left0A0.250.00" to="right0A0.250.00" type="passenger"/>
    <trip id="234" depart="106.70" from="left0A0" to="A0bottom0" type="passenger"/>
    <trip id="235" depart="106.70" from="left0A0" to="A0top0" type="passenger"/>
    <trip id="236" depart="106.95" from="left0A0" to="bottom0A0.250.00" type="passenger"/>
    <trip id="237" depart="107.20" from="right0A0.250.00" to="A0right0" type="passenger"/>
    <trip id="238" depart="107.65" from="right0A0.250.00" to="A0left0" type="passenger"/>
    <trip id="239" depart="108.25" from="top0A0.250.00" to="top0A0.250.00" type="passenger"/>
    <trip id="240" depart="108.50" from="top0A0" to="bottom0A0.250.00" type="passenger"/>
    <trip id="241" depart="109.30" from="bottom0A0" to="A0bottom0" type="passenger"/>
    <trip id="242" depart="109.35" from="left0A0.250.00" to="A0right0" type="passenger"/>
    <trip id="243" depart="109.35" from="top0A0" to="A0top0" type="passenger"/>
    <trip id="244" depart="109.40" from="top0A0.250.00" to="A0bottom0" type="passenger"/>
    <trip id="245" depart="109.65" from="right0A0" to="A0top0" type="passenger"/>
    <trip id="246" depart="109.65" from="right0A0" to="A0right0" type="passenger"/>
    <trip id="247" depart="110.40" from="right0A0.250.00" to="A0right0" type="passenger"/>
    <trip id="248" depart="110.40" from="bottom0A0.250.00" to="left0A0.250.00" type="passenger"/>
    <trip id="249" depart="111.15" from="left0A0" to="A0right0" type="passenger"/>
    <trip id="250" depart="111.70" from="right0A0" to="A0left0" type="passenger"/>
    <trip id="251" depart="111.85" from="left0A0" to="top0A0.250.00" type="passenger"/>
    <trip id="252" depart="112.25" from="right0A0" to="left0A0.250.00" type="passenger"/>
    <trip id="253" depart="112.55" from="right0A0.250.00" to="top0A0.250.00" type="passenger"/>
    <trip id="254" depart="113.20" from="bottom0A0" to="A0bottom0" type="passenger"/>
    <trip id="255" depart="113.70" from="bottom0A0.250.00" to="A0right0" type="passenger"/>
    <trip id="256" depart="114.45" from="right0A0" to="bottom0A0.250.00" type="passenger"/>
    <trip id="257" depart="115.40" from="bottom0A0" to="A0bottom0" type="passenger"/>
    <trip id="258" depart="116.05" from="right0A0" to="A0left0" type="passenger"/>
    <trip id="259" depart="116.55" from="left0A0" to="right0A0.250.00" type="passenger"/>
    <trip id="260" depart="117.10" from="left0A0.250.00" to="top0A0.250.00" type="passenger"/>
    <trip id="261" depart="117.10" from="bottom0A0" to="A0right0" type="passenger"/>
    <trip id="262" depart="117.15" from="left0A0" to="left0A0.250.00" type="passenger"/>
    <trip id="263" depart="117.95" from="right0A0.250.00" to="bottom0A0.250.00" type="passenger"/>
    <trip id="264" depart="118.10" from="bottom0A0.250.00" to="A0top0" type="passenger"/>
    <trip id="265" depart="118.60" from="top0A0.250.00" to="A0bottom0" type="passenger"/>
    <trip id="266" depart="119.90" from="left0A0" to="left0A0.250.00" type="passenger"/>
    <trip id="267" depart="119.95" from="right0A0.250.00" to="bottom0A0.250.00" type="passenger"/>
    <trip id="268" depart="120.10" from="left0A0" to="bottom0A0.250.00" type="passenger"/>
    <trip id="269" depart="120.45" from="bottom0A0" to="bottom0A0.250.00" type="passenger"/>
    <trip id="270" depart="120.55" from="bottom0A0.250.00" to="A0right0" type="passenger"/>
    <trip id="271" depart="121.25" from="top0A0" to="A0top0" type="passenger"/>
    <trip id="272" depart="121.40" from="right0A0" to="right0A0.250.00" type="passenger"/>
    <trip id="273" depart="121.55" from="top0A0.250.00" to="A0bottom0" type="passenger"/>
    <trip id="274" depart="121.80" from="left0A0" to="right0A0.250.00" type="passenger"/>
    <trip id="275" depart="122.10" from="left0A0.250.00" to="A0top0" type="passenger"/>
    <trip id="276" depart="123.20" from="left0A0.250.00" to="right0A0.250.00" type="passenger"/>
    <trip id="277" depart="124.95" from="top0A0" to="left0A0.250.00" type="passenger"/>
    <trip id="278" depart="124.95" from="top0A0" to="A0top0" type="passenger"/>
    <trip id="279" depart="125.15" from="top0A0.250.00" to="A0right0" type="passenger"/>
    <trip id="280" depart="125.25" from="right0A0" to="left0A0.250.00" type="passenger"/>
    <trip id="281" depart="125.40" from="top0A0" to="right0A0.250.00" type="passenger"/>
    <trip id="282" depart="125.65" from="top0A0.250.00" to="bottom0A0.250.00" type="passenger"/>
    <trip id="283" depart="125.65" from="left0A0" to="right0A0.250.00" type="passenger"/>
    <trip id="284" depart="126.20" from="left0A0.250.00" to="left0A0.250.00" type="passenger"/>
    <trip id="285" depart="126.55" from="bottom0A0.250.00" to="A0left0" type="passenger"/>
    <trip id="286" depart="128.70" from="bottom0A0.250.00" to="top0A0.250.00" type="passenger"/>
    <trip id="287" depart="128.85" from="right0A0.250.00" to="bottom0A0.250.00" type="passenger"/>
    <trip id="288" depart="130.15" from="top0A0.250.00" to="right0A0.250.00" type="passenger"/>
    <trip id="289" depart="130.75" from="left0A0.250.00" to="A0bottom0" type="passenger"/>
    <trip id="290" depart="130.85" from="left0A0" to="A0right0" type="passenger"/>
    <trip id="291" depart="131.50" from="top0A0" to="left0A0.250.00" type="passenger"/>
    <trip id="292" depart="131.90" from="left0A0" to="A0right0" type="passenger"/>
    <trip id="293" depart="132.10" from="left0A0.250.00" to="A0top0" type="passenger"/>
    <trip id="294" depart="132.35" from="bottom0A0.250.00" to="A0top0" type="passenger"/>
    <trip id="295" depart="132.55" from="bottom0A0" to="A0bottom0" type="passenger"/>
    <trip id="296" depart="133.60" from="top0A0.250.00" to="left0A0.250.00" type="passenger"/>
    <trip id="297" depart="133.60" from="right0A0" to="A0top0" type="passenger"/>
    <trip id="298" depart="133.60" from="bottom0A0" to="bottom0A0.250.00" type="passenger"/>
    <trip id="299" depart="134.60" from="right0A0.250.00" to="top0A0.250.00" type="passenger"/>
    <trip id="300" depart="135.40" from="bottom0A0.250.00" to="A0bottom0" type="passenger"/>
    <trip id="301" depart="136.35" from="left0A0.250.00" to="A0right0" type="passenger"/>
    <trip id="302" depart="136.90" from="top0A0" to="bottom0A0.250.00" type="passenger"/>
    <trip id="303" depart="137.45" from="right0A0" to="top0A0.250.00" type="passenger"/>
    <trip id="304" depart="139.25" from="left0A0" to="bottom0A0.250.00" type="passenger"/>
    <trip id="305" depart="139.90" from="left0A0" to="right0A0.250.00" type="passenger"/>
    <trip id="306" depart="140.15" from="top0A0.250.00" to="A0bottom0" type="passenger"/>
    <trip id="307" depart="140.50" from="right0A0.250.00" to="bottom0A0.250.00" type="passenger"/>
    <trip id="308" depart="141.45" from="left0A0.250.00" to="A0bottom0" type="passenger"/>
    <trip id="309" depart="142.55" from="right0A0" to="left0A0.250.00" type="passenger"/>
    <trip id="310" depart="142.60" from="bottom0A0" to="top0A0.250.00" type="passenger"/>
    <trip id="311" depart="142.80" from="bottom0A0" to="top0A0.250.00" type="passenger"/>
    <trip id="312" depart="142.85" from="right0A0" to="right0A0.250.00" type="passenger"/>
    <trip id="313" depart="142.90" from="top0A0.250.00" to="A0right0" type="passenger"/>
    <trip id="314" depart="142.95" from="right0A0" to="A0top0" type="passenger"/>
    <trip id="315" depart="143.05" from="left0A0" to="A0left0" type="passenger"/>
    <trip id="316" depart="143.85" from="bottom0A0.250.00" to="A0bottom0" type="passenger"/>
    <trip id="317" depart="143.90" from="right0A0" to="A0left0" type="passenger"/>
    <trip id="318" depart="145.10" from="top0A0.250.00" to="A0top0" type="passenger"/>
    <trip id="319" depart="145.35" from="bottom0A0" to="A0bottom0" type="passenger"/>
    <trip id="320" depart="145.80" from="right0A0.250.00" to="A0left0" type="passenger"/>
    <trip id="321" depart="145.95" from="left0A0" to="right0A0.250.00" type="passenger"/>
    <trip id="322" depart="148.05" from="left0A0.250.00" to="bottom0A0.250.00" type="passenger"/>
    <trip id="323" depart="148.70" from="right0A0.250.00" to="A0bottom0" type="passenger"/>
    <trip id="324" depart="148.80" from="bottom0A0.250.00" to="bottom0A0.250.00" type="passenger"/>