<?xml version="1.0" encoding="UTF-8"?>

<!-- generated on 2023-02-12 18:46:32.426847 by randomTrips.py UNKNOWN
<configuration>
    <begin value="0"/>
    <end value="900"/>
    <insertion-rate value="12500.0"/>
    <net-file value="/home/franky3er/Documents/code/HieraGLight/scenarios/grid/5x5-150m/train/20-scenario/network.net.xml"/>
    <random value="True"/>
    <random-depart value="True"/>
    <route-file value="/home/franky3er/Documents/code/HieraGLight/scenarios/grid/5x5-150m/train/20-scenario/routes.rou.xml"/>
    <seed value="20"/>
    <output-trip-file value="/home/franky3er/Documents/code/HieraGLight/scenarios/grid/5x5-150m/train/20-scenario/trips.trips.xml"/>
    <vehicle-class value="passenger"/>
</configuration>
-->

<routes xmlns:xsi="http://www.w3.org/2001/XMLSchema-instance" xsi:noNamespaceSchemaLocation="http://sumo.dlr.de/xsd/routes_file.xsd">
    <vType id="passenger" vClass="passenger"/>
    <trip id="0" depart="0.10" from="D4C4" to="D0E0" type="passenger"/>
    <trip id="1" depart="0.51" from="top0A4" to="B3C3" type="passenger"/>
    <trip id="2" depart="0.70" from="D0C0.80.00" to="E0D0.80.00" type="passenger"/>
    <trip id="3" depart="0.78" from="E2E1.80.00" to="A0A1.80.00" type="passenger"/>
    <trip id="4" depart="1.01" from="B2A2" to="B3A3" type="passenger"/>
    <trip id="5" depart="1.09" from="B3C3" to="D3D2.80.00" type="passenger"/>
    <trip id="6" depart="1.18" from="A2A3" to="C2C3" type="passenger"/>
    <trip id="7" depart="1.82" from="right4E4" to="C3B3.80.00" type="passenger"/>
    <trip id="8" depart="2.38" from="right2E2" to="bottom0A0.80.00" type="passenger"/>
    <trip id="9" depart="3.30" from="C3C2" to="A4top0" type="passenger"/>
    <trip id="10" depart="3.53" from="E3D3" to="E3D3.80.00" type="passenger"/>
    <trip id="11" depart="3.82" from="D4D3" to="B2C2" type="passenger"/>
    <trip id="12" depart="4.63" from="C0D0.80.00" to="C4D4" type="passenger"/>
    <trip id="13" depart="5.02" from="D0E0" to="left0A0.80.00" type="passenger"/>
    <trip id="14" depart="5.19" from="E2D2.80.00" to="E1E2.80.00" type="passenger"/>
    <trip id="15" depart="5.30" from="bottom0A0" to="D2C2.80.00" type="passenger"/>
    <trip id="16" depart="5.54" from="B3B2" to="C4C3.80.00" type="passenger"/>
    <trip id="17" depart="5.65" from="B2A2" to="C4B4.80.00" type="passenger"/>
    <trip id="18" depart="5.90" from="A4A3" to="bottom1B0.80.00" type="passenger"/>
    <trip id="19" depart="5.90" from="C1C0" to="C4C3.80.00" type="passenger"/>
    <trip id="20" depart="6.31" from="A2B2.80.00" to="top4E4.80.00" type="passenger"/>
    <trip id="21" depart="6.94" from="left4A4.80.00" to="E1E0.80.00" type="passenger"/>
    <trip id="22" depart="7.01" from="B0C0.80.00" to="E0right0" type="passenger"/>
    <trip id="23" depart="7.03" from="B1B2" to="D1C1.80.00" type="passenger"/>
    <trip id="24" depart="7.36" from="top4E4" to="C1C0" type="passenger"/>
    <trip id="25" depart="7.62" from="D0C0" to="D2C2" type="passenger"/>
    <trip id="26" depart="7.75" from="D3C3" to="A2A1" type="passenger"/>
    <trip id="27" depart="7.98" from="D0C0" to="C2B2.80.00" type="passenger"/>
    <trip id="28" depart="8.14" from="right0E0" to="C0B0" type="passenger"/>
    <trip id="29" depart="8.18" from="C1C0.80.00" to="C1C2.80.00" type="passenger"/>
    <trip id="30" depart="8.61" from="B0B1.80.00" to="B2B1.80.00" type="passenger"/>
    <trip id="31" depart="8.72" from="B3B4" to="D0E0" type="passenger"/>
    <trip id="32" depart="9.53" from="bottom3D0" to="D2E2" type="passenger"/>
    <trip id="33" depart="9.70" from="C4D4" to="B1B0" type="passenger"/>
    <trip id="34" depart="9.83" from="E1E0" to="D4C4.80.00" type="passenger"/>
    <trip id="35" depart="10.05" from="B3B4" to="B4B3.80.00" type="passenger"/>
    <trip id="36" depart="10.07" from="right4E4.80.00" to="D4E4.80.00" type="passenger"/>
    <trip id="37" depart="10.17" from="C3C4.80.00" to="E1E2" type="passenger"/>
    <trip id="38" depart="10.90" from="D2D3.80.00" to="E1D1.80.00" type="passenger"/>
    <trip id="39" depart="11.06" from="B1B0" to="A0A1.80.00" type="passenger"/>
    <trip id="40" depart="11.13" from="D1D2" to="D0C0" type="passenger"/>
    <trip id="41" depart="11.33" from="C1C2" to="A2A1" type="passenger"/>
    <trip id="42" depart="11.53" from="D3E3" to="left1A1.80.00" type="passenger"/>
    <trip id="43" depart="12.08" from="E1D1" to="left2A2.80.00" type="passenger"/>
    <trip id="44" depart="12.12" from="D4D3.80.00" to="C4C3" type="passenger"/>
    <trip id="45" depart="12.26" from="A3B3" to="A3B3.80.00" type="passenger"/>
    <trip id="46" depart="12.29" from="C0C1.80.00" to="E1E2" type="passenger"/>
    <trip id="47" depart="12.59" from="D2D3.80.00" to="A4A3.80.00" type="passenger"/>
    <trip id="48" depart="12.93" from="E1D1" to="A4top0" type="passenger"/>
    <trip id="49" depart="13.17" from="C4D4.80.00" to="C2B2.80.00" type="passenger"/>
    <trip id="50" depart="15.22" from="D3D4" to="A4B4.80.00" type="passenger"/>
    <trip id="51" depart="15.43" from="C1B1" to="A1A2.80.00" type="passenger"/>
    <trip id="52" depart="15.83" from="right2E2.80.00" to="E1E0" type="passenger"/>
    <trip id="53" depart="16.54" from="D1D2.80.00" to="D2D3" type="passenger"/>
    <trip id="54" depart="17.05" from="C2C3.80.00" to="A2B2" type="passenger"/>
    <trip id="55" depart="17.09" from="E4E3.80.00" to="C1B1" type="passenger"/>
    <trip id="56" depart="17.55" from="B3C3" to="D3C3.80.00" type="passenger"/>
    <trip id="57" depart="17.68" from="bottom3D0" to="E1right1" type="passenger"/>
    <trip id="58" depart="17.73" from="D1C1" to="D2C2" type="passenger"/>
    <trip id="59" depart="17.78" from="B4B3.80.00" to="D1D2.80.00" type="passenger"/>
    <trip id="60" depart="17.82" from="C4B4" to="B4B3.80.00" type="passenger"/>
    <trip id="61" depart="18.11" from="E2E1.80.00" to="E3E2.80.00" type="passenger"/>
    <trip id="62" depart="18.86" from="C2D2.80.00" to="E4E3" type="passenger"/>
    <trip id="63" depart="19.30" from="D1D0.80.00" to="C4C3.80.00" type="passenger"/>
    <trip id="64" depart="19.35" from="C3C2.80.00" to="D2E2.80.00" type="passenger"/>
    <trip id="65" depart="19.57" from="D4C4" to="A1left1" type="passenger"/>
    <trip id="66" depart="20.12" from="C1C2.80.00" to="D1E1.80.00" type="passenger"/>
    <trip id="67" depart="20.13" from="A4A3" to="C4B4" type="passenger"/>
    <trip id="68" depart="20.17" from="A1A0" to="bottom2C0.80.00" type="passenger"/>
    <trip id="69" depart="20.22" from="C3D3" to="A2left2" type="passenger"/>
    <trip id="70" depart="20.30" from="E4E3.80.00" to="D3D2" type="passenger"/>
    <trip id="71" depart="20.54" from="B3A3.80.00" to="B0C0" type="passenger"/>
    <trip id="72" depart="20.72" from="D4E4" to="A4A3" type="passenger"/>
    <trip id="73" depart="20.94" from="top4E4.80.00" to="D0C0.80.00" type="passenger"/>
    <trip id="74" depart="21.13" from="E1E0" to="B0A0.80.00" type="passenger"/>
    <trip id="75" depart="21.62" from="C3D3" to="B4C4.80.00" type="passenger"/>
    <trip id="76" depart="22.39" from="A4B4.80.00" to="D2E2.80.00" type="passenger"/>
    <trip id="77" depart="22.77" from="E3E4.80.00" to="B2C2.80.00" type="passenger"/>
    <trip id="78" depart="23.30" from="B4C4.80.00" to="D0bottom3" type="passenger"/>
    <trip id="79" depart="23.39" from="E1E0.80.00" to="D1E1" type="passenger"/>
    <trip id="80" depart="23.78" from="D2D3" to="A0left0" type="passenger"/>
    <trip id="81" depart="24.21" from="E3D3" to="right4E4.80.00" type="passenger"/>
    <trip id="82" depart="24.74" from="D2D3" to="C1B1" type="passenger"/>
    <trip id="83" depart="25.26" from="bottom0A0" to="E1E2.80.00" type="passenger"/>
    <trip id="84" depart="25.30" from="A2B2" to="B3C3" type="passenger"/>
    <trip id="85" depart="25.66" from="right3E3.80.00" to="C0D0" type="passenger"/>
    <trip id="86" depart="25.74" from="top0A4.80.00" to="C0D0.80.00" type="passenger"/>
    <trip id="87" depart="25.99" from="C2B2.80.00" to="E4D4" type="passenger"/>
    <trip id="88" depart="26.14" from="B1A1.80.00" to="B3C3" type="passenger"/>
    <trip id="89" depart="26.48" from="E1E0" to="A0B0.80.00" type="passenger"/>
    <trip id="90" depart="26.51" from="E3E4" to="D2D3" type="passenger"/>
    <trip id="91" depart="26.70" from="C2B2.80.00" to="C3C2" type="passenger"/>
    <trip id="92" depart="27.17" from="left0A0.80.00" to="E1E2.80.00" type="passenger"/>
    <trip id="93" depart="27.18" from="D4D3" to="C2C3.80.00" type="passenger"/>
    <trip id="94" depart="27.26" from="bottom4E0.80.00" to="bottom4E0.80.00" type="passenger"/>
    <trip id="95" depart="27.47" from="right4E4" to="D0C0" type="passenger"/>
    <trip id="96" depart="27.59" from="D4C4" to="B2A2" type="passenger"/>
    <trip id="97" depart="27.62" from="E1E2.80.00" to="C0bottom2" type="passenger"/>
    <trip id="98" depart="27.93" from="C2C3" to="B3B4" type="passenger"/>
    <trip id="99" depart="28.69" from="D1D2" to="A2A1" type="passenger"/>
    <trip id="100" depart="29.28" from="B0A0.80.00" to="A1A0.80.00" type="passenger"/>
    <trip id="101" depart="29.70" from="C1B1" to="left2A2.80.00" type="passenger"/>
    <trip id="102" depart="29.78" from="top0A4" to="C3C4" type="passenger"/>
    <trip id="103" depart="29.88" from="C0D0" to="A1B1.80.00" type="passenger"/>
    <trip id="104" depart="29.93" from="B0A0" to="C4D4.80.00" type="passenger"/>
    <trip id="105" depart="30.18" from="left4A4" to="A2A3" type="passenger"/>
    <trip id="106" depart="30.56" from="D3D4.80.00" to="A3A2.80.00" type="passenger"/>
    <trip id="107" depart="30.65" from="D2C2.80.00" to="right2E2.80.00" type="passenger"/>
    <trip id="108" depart="30.74" from="B4B3.80.00" to="A4A3.80.00" type="passenger"/>
    <trip id="109" depart="30.80" from="D1D2.80.00" to="E2E1" type="passenger"/>
    <trip id="110" depart="31.01" from="B4A4" to="C2C3" type="passenger"/>
    <trip id="111" depart="31.20" from="C0B0.80.00" to="C0D0.80.00" type="passenger"/>
    <trip id="112" depart="31.71" from="C3D3.80.00" to="E3D3" type="passenger"/>
    <trip id="113" depart="31.79" from="C3D3" to="E0E1.80.00" type="passenger"/>
    <trip id="114" depart="31.80" from="B2B1" to="left4A4.80.00" type="passenger"/>
    <trip id="115" depart="31.94" from="B1A1" to="A4B4.80.00" type="passenger"/>
    <trip id="116" depart="32.78" from="B1B0" to="C1C0" type="passenger"/>
    <trip id="117" depart="33.27" from="left1A1.80.00" to="A1A0.80.00" type="passenger"/>
    <trip id="118" depart="33.91" from="top3D4" to="D2D3.80.00" type="passenger"/>
    <trip id="119" depart="34.30" from="C2C3.80.00" to="C2D2" type="passenger"/>
    <trip id="120" depart="34.41" from="right4E4.80.00" to="A0bottom0" type="passenger"/>
    <trip id="121" depart="34.61" from="B3B4" to="D3C3" type="passenger"/>
    <trip id="122" depart="34.73" from="B3B4.80.00" to="right4E4.80.00" type="passenger"/>
    <trip id="123" depart="34.87" from="C1D1.80.00" to="E2D2.80.00" type="passenger"/>
    <trip id="124" depart="34.94" from="C1C2" to="B4B3" type="passenger"/>
    <trip id="125" depart="35.32" from="D2C2.80.00" to="E1right1" type="passenger"/>
    <trip id="126" depart="35.42" from="D0D1.80.00" to="B0A0.80.00" type="passenger"/>
    <trip id="127" depart="35.49" from="bottom3D0" to="E1E2" type="passenger"/>
    <trip id="128" depart="35.57" from="B2C2.80.00" to="E3right3" type="passenger"/>
    <trip id="129" depart="35.58" from="B1C1.80.00" to="E0right0" type="passenger"/>
    <trip id="130" depart="35.69" from="bottom3D0" to="C4C3" type="passenger"/>
    <trip id="131" depart="35.80" from="A0B0" to="left2A2.80.00" type="passenger"/>
    <trip id="132" depart="35.94" from="left2A2" to="C4D4" type="passenger"/>
    <trip id="133" depart="36.46" from="E2E3" to="left3A3.80.00" type="passenger"/>
    <trip id="134" depart="36.46" from="B1B2" to="D1C1" type="passenger"/>
    <trip id="135" depart="36.63" from="D4C4" to="B2C2.80.00" type="passenger"/>
    <trip id="136" depart="37.34" from="E0E1" to="D4top3" type="passenger"/>
    <trip id="137" depart="37.70" from="A0A1" to="A3A2" type="passenger"/>
    <trip id="138" depart="38.14" from="E2E3.80.00" to="A4B4.80.00" type="passenger"/>
    <trip id="139" depart="39.04" from="B2C2" to="C2B2" type="passenger"/>
    <trip id="140" depart="39.06" from="B2B3" to="D2D3" type="passenger"/>
    <trip id="141" depart="39.17" from="bottom3D0.80.00" to="D4D3" type="passenger"/>
    <trip id="142" depart="39.66" from="E0E1" to="C1B1" type="passenger"/>
    <trip id="143" depart="40.06" from="C0C1" to="E4right4" type="passenger"/>
    <trip id="144" depart="40.45" from="left2A2.80.00" to="left0A0.80.00" type="passenger"/>
    <trip id="145" depart="40.47" from="B2C2" to="B4B3.80.00" type="passenger"/>
    <trip id="146" depart="40.56" from="E4E3.80.00" to="C1C0.80.00" type="passenger"/>
    <trip id="147" depart="40.57" from="D4C4.80.00" to="D3D2" type="passenger"/>
    <trip id="148" depart="40.91" from="right1E1" to="D3D2.80.00" type="passenger"/>
    <trip id="149" depart="41.10" from="C2B2" to="C1C0.80.00" type="passenger"/>
    <trip id="150" depart="41.26" from="C0C1" to="D2C2" type="passenger"/>
    <trip id="151" depart="41.34" from="C2D2" to="C4C3" type="passenger"/>
    <trip id="152" depart="42.70" from="A3B3.80.00" to="B4A4" type="passenger"/>
    <trip id="153" depart="42.75" from="A2B2" to="D2D3.80.00" type="passenger"/>
    <trip id="154" depart="42.94" from="bottom0A0.80.00" to="A1A2" type="passenger"/>
    <trip id="155" depart="43.53" from="C2B2.80.00" to="B3A3" type="passenger"/>
    <trip id="156" depart="44.47" from="C4D4" to="A2A1.80.00" type="passenger"/>
    <trip id="157" depart="44.90" from="B1B2" to="A3A2" type="passenger"/>
    <trip id="158" depart="45.14" from="D3D4" to="B1C1.80.00" type="passenger"/>
    <trip id="159" depart="45.42" from="C3C4.80.00" to="left0A0.80.00" type="passenger"/>
    <trip id="160" depart="45.46" from="left2A2" to="D2D3" type="passenger"/>
    <trip id="161" depart="45.74" from="bottom1B0" to="E3E4" type="passenger"/>
    <trip id="162" depart="45.92" from="D2D1.80.00" to="top0A4.80.00" type="passenger"/>
    <trip id="163" depart="46.44" from="E0D0.80.00" to="D1D0" type="passenger"/>
    <trip id="164" depart="46.54" from="C1C0" to="B1A1" type="passenger"/>
    <trip id="165" depart="46.56" from="A1A0.80.00" to="B0C0" type="passenger"/>
    <trip id="166" depart="46.64" from="B1C1" to="A2A3.80.00" type="passenger"/>
    <trip id="167" depart="46.73" from="E1E2.80.00" to="D3E3" type="passenger"/>
    <trip id="168" depart="46.78" from="B3B2.80.00" to="A2B2" type="passenger"/>
    <trip id="169" depart="46.90" from="B0A0.80.00" to="D4E4" type="passenger"/>
    <trip id="170" depart="47.21" from="top0A4.80.00" to="E4top4" type="passenger"/>
    <trip id="171" depart="47.73" from="D3D2.80.00" to="D4E4.80.00" type="passenger"/>
    <trip id="172" depart="47.96" from="left1A1" to="B3B2.80.00" type="passenger"/>
    <trip id="173" depart="48.88" from="D0C0" to="D2D3.80.00" type="passenger"/>
    <trip id="174" depart="49.06" from="left0A0" to="D0bottom3" type="passenger"/>
    <trip id="175" depart="49.21" from="D0D1.80.00" to="E3E4.80.00" type="passenger"/>
    <trip id="176" depart="50.10" from="D2C2" to="B2A2" type="passenger"/>
    <trip id="177" depart="50.22" from="A3A2" to="C3C2.80.00" type="passenger"/>
    <trip id="178" depart="50.23" from="C3C2.80.00" to="B2B1" type="passenger"/>
    <trip id="179" depart="50.34" from="top1B4" to="E1right1" type="passenger"/>
    <trip id="180" depart="50.54" from="top4E4" to="D3D4" type="passenger"/>
    <trip id="181" depart="50.56" from="C3C2.80.00" to="right0E0.80.00" type="passenger"/>
    <trip id="182" depart="50.58" from="B0B1.80.00" to="left0A0.80.00" type="passenger"/>
    <trip id="183" depart="51.00" from="C3D3.80.00" to="A4B4" type="passenger"/>
    <trip id="184" depart="51.02" from="left0A0.80.00" to="B4A4.80.00" type="passenger"/>
    <trip id="185" depart="51.86" from="D3E3" to="C0D0" type="passenger"/>
    <trip id="186" depart="51.90" from="A3B3" to="E2D2.80.00" type="passenger"/>
    <trip id="187" depart="52.04" from="left1A1" to="C0B0" type="passenger"/>
    <trip id="188" depart="52.85" from="A1A0" to="top3D4.80.00" type="passenger"/>
    <trip id="189" depart="53.29" from="left2A2" to="B1B0" type="passenger"/>
    <trip id="190" depart="53.59" from="A1A0.80.00" to="E0E1" type="passenger"/>
    <trip id="191" depart="53.67" from="B0A0.80.00" to="C2D2" type="passenger"/>
    <trip id="192" depart="53.85" from="A0B0.80.00" to="D1C1" type="passenger"/>
    <trip id="193" depart="53.87" from="top3D4" to="C4D4" type="passenger"/>
    <trip id="194" depart="54.19" from="D3E3" to="D3D4.80.00" type="passenger"/>
    <trip id="195" depart="54.59" from="left0A0.80.00" to="right4E4.80.00" type="passenger"/>
    <trip id="196" depart="54.61" from="D2E2.80.00" to="A2A3" type="passenger"/>
    <trip id="197" depart="54.62" from="D1D2" to="bottom2C0.80.00" type="passenger"/>
    <trip id="198" depart="54.70" from="C4D4.80.00" to="right1E1.80.00" type="passenger"/>
    <trip id="199" depart="54.74" from="top2C4.80.00" to="B3A3.80.00" type="passenger"/>
    <trip id="200" depart="54.90" from="D4E4" to="E1right1" type="passenger"/>
    <trip id="201" depart="55.34" from="left3A3" to="D4D3.80.00" type="passenger"/>
    <trip id="202" depart="55.65" from="E3D3" to="B1B0.80.00" type="passenger"/>
    <trip id="203" depart="55.88" from="D3D4.80.00" to="B2B3.80.00" type="passenger"/>
    <trip id="204" depart="56.38" from="D1E1.80.00" to="D0D1.80.00" type="passenger"/>
    <trip id="205" depart="57.55" from="B1B0.80.00" to="D0D1" type="passenger"/>
    <trip id="206" depart="57.63" from="D2D1" to="A1A0" type="passenger"/>
    <trip id="207" depart="57.86" from="top1B4.80.00" to="D0bottom3" type="passenger"/>
    <trip id="208" depart="58.48" from="bottom4E0" to="C4top2" type="passenger"/>
    <trip id="209" depart="58.66" from="C0D0.80.00" to="D0D1.80.00" type="passenger"/>
    <trip id="210" depart="58.70" from="A2A1" to="D1D0" type="passenger"/>
    <trip id="211" depart="58.99" from="B3B4" to="D1C1.80.00" type="passenger"/>
    <trip id="212" depart="58.99" from="left0A0" to="A1B1.80.00" type="passenger"/>
    <trip id="213" depart="59.06" from="B3B4.80.00" to="D4C4.80.00" type="passenger"/>
    <trip id="214" depart="59.49" from="left4A4" to="D4D3" type="passenger"/>
    <trip id="215" depart="59.91" from="A1A2.80.00" to="E1E2.80.00" type="passenger"/>
    <trip id="216" depart="60.09" from="B4B3" to="E2right2" type="passenger"/>
    <trip id="217" depart="60.16" from="right3E3" to="left0A0.80.00" type="passenger"/>
    <trip id="218" depart="60.47" from="A2B2.80.00" to="B1B0" type="passenger"/>
    <trip id="219" depart="60.85" from="B3A3.80.00" to="B1C1.80.00" type="passenger"/>
    <trip id="220" depart="60.86" from="C3C4.80.00" to="D1D2.80.00" type="passenger"/>
    <trip id="221" depart="61.46" from="D2C2" to="A0B0.80.00" type="passenger"/>
    <trip id="222" depart="61.58" from="A4B4.80.00" to="C1B1" type="passenger"/>
    <trip id="223" depart="61.63" from="D3D4" to="E1right1" type="passenger"/>
    <trip id="224" depart="62.14" from="E2E1" to="E1D1.80.00" type="passenger"/>
    <trip id="225" depart="62.18" from="C1B1" to="B1A1" type="passenger"/>
    <trip id="226" depart="62.24" from="A3B3.80.00" to="A0A1" type="passenger"/>
    <trip id="227" depart="62.44" from="D4D3" to="A1left1" type="passenger"/>
    <trip id="228" depart="62.45" from="B0A0.80.00" to="B1A1.80.00" type="passenger"/>
    <trip id="229" depart="62.48" from="B2B1" to="B4B3" type="passenger"/>
    <trip id="230" depart="62.58" from="E2D2" to="C0B0" type="passenger"/>
    <trip id="231" depart="62.77" from="A4A3" to="D1E1" type="passenger"/>
    <trip id="232" depart="62.99" from="C0B0.80.00" to="C3B3.80.00" type="passenger"/>
    <trip id="233" depart="63.28" from="D2E2" to="B0bottom1" type="passenger"/>
    <trip id="234" depart="63.38" from="D4D3" to="A0B0" type="passenger"/>
    <trip id="235" depart="63.70" from="B0C0" to="A3B3" type="passenger"/>
    <trip id="236" depart="64.67" from="E1D1.80.00" to="B3A3" type="passenger"/>
    <trip id="237" depart="64.70" from="C4D4" to="A0B0" type="passenger"/>
    <trip id="238" depart="65.38" from="E0E1" to="E4E3" type="passenger"/>
    <trip id="239" depart="65.87" from="A0A1" to="A1A0" type="passenger"/>
    <trip id="240" depart="65.89" from="C0D0" to="B0C0" type="passenger"/>
    <trip id="241" depart="65.91" from="B2B3.80.00" to="C3D3" type="passenger"/>
    <trip id="242" depart="65.98" from="B4B3.80.00" to="C2D2" type="passenger"/>
    <trip id="243" depart="66.26" from="top0A4" to="E3right3" type="passenger"/>
    <trip id="244" depart="66.83" from="E3D3" to="A2A3.80.00" type="passenger"/>
    <trip id="245" depart="67.03" from="B1C1.80.00" to="D0C0" type="passenger"/>
    <trip id="246" depart="67.13" from="D2E2" to="C1C0" type="passenger"/>
    <trip id="247" depart="67.36" from="B2C2" to="A0left0" type="passenger"/>
    <trip id="248" depart="67.83" from="bottom3D0" to="C0C1" type="passenger"/>
    <trip id="249" depart="68.06" from="right1E1" to="B4C4" type="passenger"/>
    <trip id="250" depart="68.67" from="D1D2" to="D2E2.80.00" type="passenger"/>
    <trip id="251" depart="68.76" from="A4A3" to="D4C4.80.00" type="passenger"/>
    <trip id="252" depart="69.14" from="A1B1.80.00" to="B0bottom1" type="passenger"/>
    <trip id="253" depart="69.58" from="B2C2.80.00" to="E4E3" type="passenger"/>
    <trip id="254" depart="69.72" from="B0B1" to="A4top0" type="passenger"/>
    <trip id="255" depart="69.87" from="D1D0.80.00" to="A0A1" type="passenger"/>
    <trip id="256" depart="70.72" from="B1C1.80.00" to="C4B4.80.00" type="passenger"/>
    <trip id="257" depart="71.34" from="E4D4" to="E4E3.80.00" type="passenger"/>
    <trip id="258" depart="71.40" from="top4E4.80.00" to="A4B4.80.00" type="passenger"/>
    <trip id="259" depart="71.71" from="B3A3" to="A4top0" type="passenger"/>
    <trip id="260" depart="71.88" from="B0B1" to="B0C0.80.00" type="passenger"/>
    <trip id="261" depart="72.12" from="B2A2" to="left1A1.80.00" type="passenger"/>
    <trip id="262" depart="72.31" from="B1A1" to="C1D1.80.00" type="passenger"/>
    <trip id="263" depart="72.45" from="A1B1" to="A2B2.80.00" type="passenger"/>
    <trip id="264" depart="72.70" from="left4A4" to="E3E2" type="passenger"/>
    <trip id="265" depart="73.02" from="B1A1.80.00" to="D3C3.80.00" type="passenger"/>
    <trip id="266" depart="73.21" from="C3B3.80.00" to="C0C1.80.00" type="passenger"/>
    <trip id="267" depart="73.32" from="E0E1.80.00" to="top0A4.80.00" type="passenger"/>
    <trip id="268" depart="73.46" from="E3E2" to="D2D1.80.00" type="passenger"/>
    <trip id="269" depart="73.57" from="C3C2" to="E3D3" type="passenger"/>
    <trip id="270" depart="73.85" from="B1C1.80.00" to="B1B2" type="passenger"/>
    <trip id="271" depart="73.97" from="C1C2.80.00" to="B2B1.80.00" type="passenger"/>
    <trip id="272" depart="74.56" from="C4D4.80.00" to="E2D2.80.00" type="passenger"/>
    <trip id="273" depart="75.16" from="bottom2C0.80.00" to="D3D2" type="passenger"/>
    <trip id="274" depart="75.35" from="A1A0" to="A2A3" type="passenger"/>
    <trip id="275" depart="75.47" from="C2D2" to="C2C3" type="passenger"/>
    <trip id="276" depart="75.70" from="left3A3.80.00" to="B2B3" type="passenger"/>
    <trip id="277" depart="75.80" from="D1C1.80.00" to="B1B0" type="passenger"/>
    <trip id="278" depart="76.00" from="E0E1" to="B1C1.80.00" type="passenger"/>
    <trip id="279" depart="76.46" from="B0A0.80.00" to="E1D1.80.00" type="passenger"/>
    <trip id="280" depart="76.49" from="C1C0" to="right2E2.80.00" type="passenger"/>
    <trip id="281" depart="76.56" from="D2D3.80.00" to="B3A3.80.00" type="passenger"/>
    <trip id="282" depart="76.77" from="A2B2" to="B2B1" type="passenger"/>
    <trip id="283" depart="76.81" from="B2B3.80.00" to="D0C0" type="passenger"/>
    <trip id="284" depart="77.06" from="A2B2.80.00" to="D1C1" type="passenger"/>
    <trip id="285" depart="77.29" from="D0E0" to="E2E1.80.00" type="passenger"/>
    <trip id="286" depart="77.62" from="D3C3" to="B4C4.80.00" type="passenger"/>
    <trip id="287" depart="77.75" from="left3A3" to="E2E3.80.00" type="passenger"/>
    <trip id="288" depart="77.89" from="B2C2" to="D4D3.80.00" type="passenger"/>
    <trip id="289" depart="78.22" from="D1D0" to="C1C0.80.00" type="passenger"/>
    <trip id="290" depart="78.58" from="A2A1.80.00" to="B1B2.80.00" type="passenger"/>
    <trip id="291" depart="78.92" from="bottom2C0" to="C0B0.80.00" type="passenger"/>
    <trip id="292" depart="80.33" from="C3B3" to="bottom0A0.80.00" type="passenger"/>
    <trip id="293" depart="80.58" from="D4C4.80.00" to="D2E2" type="passenger"/>
    <trip id="294" depart="81.04" from="right0E0" to="B0B1.80.00" type="passenger"/>
    <trip id="295" depart="81.10" from="A2A3" to="E3E4" type="passenger"/>
    <trip id="296" depart="81.30" from="bottom3D0" to="D2D3.80.00" type="passenger"/>
    <trip id="297" depart="81.34" from="A4A3" to="A1A0.80.00" type="passenger"/>
    <trip id="298" depart="81.66" from="B3B2" to="D4C4" type="passenger"/>
    <trip id="299" depart="81.95" from="D3D2" to="bottom3D0.80.00" type="passenger"/>
    <trip id="300" depart="81.96" from="top2C4" to="A0B0.80.00" type="passenger"/>
    <trip id="301" depart="82.00" from="E3D3" to="right4E4.80.00" type="passenger"/>
    <trip id="302" depart="82.65" from="A3A2.80.00" to="bottom0A0.80.00" type="passenger"/>
    <trip id="303" depart="82.69" from="right0E0" to="D2C2" type="passenger"/>
    <trip id="304" depart="82.82" from="B1B2.80.00" to="C4D4" type="passenger"/>
    <trip id="305" depart="83.74" from="B4A4" to="A3left3" type="passenger"/>
    <trip id="306" depart="84.34" from="C2C1.80.00" to="C4B4.80.00" type="passenger"/>
    <trip id="307" depart="84.47" from="D0D1" to="B4A4" type="passenger"/>
    <trip id="308" depart="85.66" from="B3B2.80.00" to="top2C4.80.00" type="passenger"/>
    <trip id="309" depart="85.94" from="C0C1.80.00" to="E4E3" type="passenger"/>
    <trip id="310" depart="86.38" from="B3B4" to="right4E4.80.00" type="passenger"/>
    <trip id="311" depart="86.52" from="right4E4" to="A2A1" type="passenger"/>
    <trip id="312" depart="86.75" from="bottom4E0" to="C0D0.80.00" type="passenger"/>
    <trip id="313" depart="86.78" from="B2C2" to="B3B4.80.00" type="passenger"/>
    <trip id="314" depart="86.80" from="left2A2" to="A3B3" type="passenger"/>
    <trip id="315" depart="86.82" from="D1C1.80.00" to="E2D2.80.00" type="passenger"/>
    <trip id="316" depart="87.00" from="C3C2" to="E1E0" type="passenger"/>
    <trip id="317" depart="87.12" from="B2C2" to="E3E4" type="passenger"/>
    <trip id="318" depart="88.57" from="E3D3" to="C4D4" type="passenger"/>
    <trip id="319" depart="88.66" from="D3E3.80.00" to="A1A2" type="passenger"/>
    <trip id="320" depart="88.70" from="E0D0.80.00" to="D4C4.80.00" type="passenger"/>
    <trip id="321" depart="88.73" from="A2A1" to="C2C1.80.00" type="passenger"/>
    <trip id="322" depart="88.82" from="D1D0" to="C4top2" type="passenger"/>
    <trip id="323" depart="89.17" from="B0B1.80.00" to="right3E3.80.00" type="passenger"/>
    <trip id="324" depart="91.50" from="D2D3" to="D0D1" type="passenger"/>
    <trip id="325" depart="92.27" from="A1B1.80.00" to="left0A0.80.00" type="passenger"/>
    <trip id="326" depart="92.74" from="D1E1.80.00" to="E2E1" type="passenger"/>
    <trip id="327" depart="93.06" from="E3D3" to="B4C4.80.00" type="passenger"/>
    <trip id="328" depart="93.15" from="A1A0" to="C1C0.80.00" type="passenger"/>
    <trip id="329" depart="93.40" from="D4C4.80.00" to="A1B1" type="passenger"/>
    <trip id="330" depart="94.37" from="C0C1" to="A2A1" type="passenger"/>
    <trip id="331" depart="94.91" from="B2A2.80.00" to="A1A2.80.00" type="passenger"/>
    <trip id="332" depart="95.46" from="C1D1.80.00" to="D4D3" type="passenger"/>
    <trip id="333" depart="95.82" from="right4E4.80.00" to="E0E1.80.00" type="passenger"/>
    <trip id="334" depart="95.90" from="B2B1.80.00" to="D2C2" type="passenger"/>
    <trip id="335" depart="96.23" from="C1D1" to="A3A2" type="passenger"/>
    <trip id="336" depart="96.30" from="C0D0" to="B1A1" type="passenger"/>
    <trip id="337" depart="96.44" from="D3E3.80.00" to="B3B4.80.00" type="passenger"/>
    <trip id="338" depart="96.45" from="A3A4.80.00" to="D0E0" type="passenger"/>
    <trip id="339" depart="96.50" from="C2B2.80.00" to="C1D1" type="passenger"/>
    <trip id="340" depart="96.92" from="left1A1" to="A4B4.80.00" type="passenger"/>
    <trip id="341" depart="97.14" from="E2E1" to="E2E1.80.00" type="passenger"/>
    <trip id="342" depart="97.20" from="A4A3" to="E2D2" type="passenger"/>
    <trip id="343" depart="97.50" from="A0A1" to="B0B1.80.00" type="passenger"/>
    <trip id="344" depart="97.70" from="E1E0" to="A0A1.80.00" type="passenger"/>
    <trip id="345" depart="97.70" from="C0D0.80.00" to="E2E1.80.00" type="passenger"/>
    <trip id="346" depart="97.84" from="C2D2.80.00" to="E0bottom4" type="passenger"/>
    <trip id="347" depart="98.17" from="D0D1.80.00" to="D0C0" type="passenger"/>
    <trip id="348" depart="98.18" from="D4E4.80.00" to="A1A2" type="passenger"/>
    <trip id="349" depart="98.26" from="A3A4.80.00" to="top2C4.80.00" type="passenger"/>
    <trip id="350" depart="98.45" from="left3A3" to="bottom1B0.80.00" type="passenger"/>
    <trip id="351" depart="98.58" from="B3C3" to="E0E1" type="passenger"/>
    <trip id="352" depart="98.61" from="D1E1" to="B2B1" type="passenger"/>
    <trip id="353" depart="99.01" from="D4E4.80.00" to="E3right3" type="passenger"/>
    <trip id="354" depart="99.12" from="D3E3" to="bottom1B0.80.00" type="passenger"/>
    <trip id="355" depart="99.20" from="D4D3.80.00" to="E4D4.80.00" type="passenger"/>
    <trip id="356" depart="99.38" from="top3D4" to="E3E2.80.00" type="passenger"/>